<?xml version="1.0" encoding="UTF-8"?>

<!-- generated on 2024-11-04 11:20:16 by Eclipse SUMO netedit Version 1.21.0
<neteditConfiguration xmlns:xsi="http://www.w3.org/2001/XMLSchema-instance" xsi:noNamespaceSchemaLocation="http://sumo.dlr.de/xsd/neteditConfiguration.xsd">

    <input>
        <sumocfg-file value="/home/taiki/workspace/sumo/high-way-branch/high-way.sumocfg"/>
        <route-files value="/home/taiki/workspace/sumo/high-way-branch/high-way.rou.xml"/>
        <sumo-net-file value="/home/taiki/workspace/sumo/high-way-branch/high-way.net.xml"/>
    </input>

    <output>
        <output-file value="/home/taiki/workspace/sumo/high-way-branch/high-way.net.xml"/>
    </output>

    <processing>
        <geometry.min-radius.fix.railways value="false"/>
        <geometry.max-grade.fix value="false"/>
        <offset.disable-normalization value="true"/>
        <lefthand value="0"/>
    </processing>

    <junctions>
        <no-turnarounds value="true"/>
        <junctions.corner-detail value="5"/>
        <junctions.limit-turn-speed value="5.50"/>
        <rectangular-lane-cut value="0"/>
    </junctions>

    <pedestrian>
        <walkingareas value="0"/>
    </pedestrian>

</neteditConfiguration>
-->

<net version="1.20" junctionCornerDetail="5" limitTurnSpeed="5.50" xmlns:xsi="http://www.w3.org/2001/XMLSchema-instance" xsi:noNamespaceSchemaLocation="http://sumo.dlr.de/xsd/net_file.xsd">

    <location netOffset="250.00,0.00" convBoundary="-70.80,-9.97,105.82,0.13" origBoundary="-250.00,0.00,251.00,50.00" projParameter="!"/>

    <edge id=":J23_0" function="internal">
        <lane id=":J23_0_0" index="0" speed="13.89" length="3.01" shape="9.67,-18.20 12.67,-17.97"/>
        <lane id=":J23_0_1" index="1" speed="13.89" length="3.01" shape="9.67,-15.00 12.67,-14.77"/>
        <lane id=":J23_0_2" index="2" speed="13.89" length="3.01" shape="9.67,-11.80 12.67,-11.57"/>
    </edge>
    <edge id=":J23_3" function="internal">
        <lane id=":J23_3_0" index="0" speed="13.89" length="3.00" shape="9.67,-8.60 12.67,-8.52"/>
    </edge>
    <edge id=":J30_0" function="internal">
        <lane id=":J30_0_0" index="0" speed="13.89" length="17.39" shape="27.14,-17.97 44.53,-17.90"/>
        <lane id=":J30_0_1" index="1" speed="13.89" length="17.39" shape="27.14,-14.77 44.53,-14.70"/>
        <lane id=":J30_0_2" index="2" speed="13.89" length="17.39" shape="27.14,-11.57 44.53,-11.50"/>
    </edge>
    <edge id=":J30_3" function="internal">
        <lane id=":J30_3_0" index="0" speed="13.89" length="17.36" shape="27.14,-11.57 32.70,-11.10 36.90,-9.94 40.37,-8.46 43.73,-7.01"/>
    </edge>
    <edge id=":J35_0" function="internal">
        <lane id=":J35_0_0" index="0" speed="13.89" length="3.30" shape="55.09,-2.79 56.01,-2.47 56.67,-2.31 57.34,-2.25 58.31,-2.24"/>
    </edge>
    <edge id=":J35_1" function="internal">
        <lane id=":J35_1_0" index="0" speed="13.89" length="3.29" shape="55.04,-2.53 56.00,-2.35 56.67,-2.27 57.34,-2.25 58.31,-2.24"/>
    </edge>
    <edge id=":J37_0" function="internal">
        <lane id=":J37_0_0" index="0" speed="13.89" length="0.29" shape="85.33,-1.96 85.61,-1.96"/>
    </edge>

    <edge id="E0" from="1" to="J23" priority="-1">
        <lane id="E0_0" index="0" speed="13.89" length="80.47" shape="-70.80,-18.20 9.67,-18.20"/>
        <lane id="E0_1" index="1" speed="13.89" length="80.47" shape="-70.80,-15.00 9.67,-15.00"/>
        <lane id="E0_2" index="2" speed="13.89" length="80.47" shape="-70.80,-11.80 9.67,-11.80"/>
        <lane id="E0_3" index="3" speed="13.89" length="80.47" shape="-70.80,-8.60 9.67,-8.60"/>
    </edge>
    <edge id="E1" from="J23" to="J35" priority="-1" shape="10.41,-7.00 28.08,-6.35 56.24,-0.66">
        <lane id="E1_0" index="0" speed="13.89" length="42.92" shape="12.67,-8.52 28.27,-7.94 55.04,-2.53"/>
    </edge>
    <edge id="E2" from="J23" to="J30" priority="-1" shape="11.90,-9.97 40.64,-9.97">
        <lane id="E2_0" index="0" speed="13.89" length="14.47" shape="12.67,-17.97 27.14,-17.97"/>
        <lane id="E2_1" index="1" speed="13.89" length="14.47" shape="12.67,-14.77 27.14,-14.77"/>
        <lane id="E2_2" index="2" speed="13.89" length="14.47" shape="12.67,-11.57 27.14,-11.57"/>
    </edge>
    <edge id="E3" from="J30" to="J36" priority="-1" shape="40.60,-9.90 105.82,-9.90">
        <lane id="E3_0" index="0" speed="13.89" length="59.84" shape="44.53,-17.90 104.37,-17.90"/>
        <lane id="E3_1" index="1" speed="13.89" length="59.84" shape="44.53,-14.70 104.37,-14.70"/>
        <lane id="E3_2" index="2" speed="13.89" length="59.84" shape="44.53,-11.50 104.37,-11.50"/>
    </edge>
    <edge id="E4" from="J30" to="J35" priority="-1">
        <lane id="E4_0" index="0" speed="13.89" length="12.13" shape="43.73,-7.01 55.09,-2.79"/>
    </edge>
    <edge id="E42" from="J35" to="J37" priority="-1">
        <lane id="E42_0" index="0" speed="13.89" length="27.01" shape="58.31,-2.24 85.33,-1.96"/>
    </edge>
    <edge id="E43" from="J37" to="J38" priority="-1">
        <lane id="E43_0" index="0" speed="13.89" length="17.96" shape="85.61,-1.96 103.56,-1.47"/>
    </edge>

    <tlLogic id="J37" type="static" programID="0" offset="0">
        <phase duration="82" state="G"/>
        <phase duration="3"  state="y"/>
        <phase duration="5"  state="r"/>
    </tlLogic>

    <junction id="1" type="dead_end" x="-70.80" y="-7.00" incLanes="" intLanes="" shape="-70.80,-7.00 -70.80,-19.80"/>
    <junction id="J23" type="priority" x="10.41" y="-7.00" incLanes="E0_0 E0_1 E0_2 E0_3" intLanes=":J23_0_0 :J23_0_1 :J23_0_2 :J23_3_0" shape="12.67,-6.92 12.67,-19.57 9.67,-19.80 9.67,-7.00">
        <request index="0" response="0000" foes="0000" cont="0"/>
        <request index="1" response="0000" foes="0000" cont="0"/>
        <request index="2" response="0000" foes="0000" cont="0"/>
        <request index="3" response="0000" foes="0000" cont="0"/>
    </junction>
    <junction id="J30" type="priority" x="39.15" y="-7.00" incLanes="E2_0 E2_1 E2_2" intLanes=":J30_0_0 :J30_0_1 :J30_0_2 :J30_3_0" shape="43.17,-5.51 44.28,-8.51 44.53,-9.90 44.53,-19.50 27.14,-19.57 27.14,-9.97 30.68,-9.84 33.26,-9.46 35.35,-8.82 37.40,-7.95 39.85,-6.84">
        <request index="0" response="0000" foes="0000" cont="0"/>
        <request index="1" response="0000" foes="0000" cont="0"/>
        <request index="2" response="0000" foes="0000" cont="0"/>
        <request index="3" response="0000" foes="0000" cont="0"/>
    </junction>
    <junction id="J35" type="priority" x="56.24" y="-0.66" incLanes="E4_0 E1_0" intLanes=":J35_0_0 :J35_1_0" shape="58.30,-0.64 58.33,-3.84 57.23,-3.87 56.84,-3.92 56.46,-4.01 56.02,-4.16 55.42,-4.38 54.72,-0.97 56.03,-0.73 56.49,-0.68 56.96,-0.65 57.53,-0.64">
        <request index="0" response="00" foes="10" cont="0"/>
        <request index="1" response="01" foes="01" cont="0"/>
    </junction>
    <junction id="J36" type="dead_end" x="104.37" y="-7.00" incLanes="E3_0 E3_1 E3_2" intLanes="" shape="104.37,-19.50 104.37,-9.90"/>
    <junction id="J37" type="traffic_light" x="85.44" y="-0.36" incLanes="E42_0" intLanes=":J37_0_0" shape="85.57,-0.36 85.66,-3.56 85.34,-3.56 85.31,-0.36">
        <request index="0" response="0" foes="0" cont="0"/>
    </junction>
    <junction id="J38" type="dead_end" x="103.52" y="0.13" incLanes="E43_0" intLanes="" shape="103.61,-3.07 103.52,0.13"/>

    <connection from="E0" to="E2" fromLane="0" toLane="0" via=":J23_0_0" dir="s" state="M"/>
    <connection from="E0" to="E2" fromLane="1" toLane="1" via=":J23_0_1" dir="s" state="M"/>
    <connection from="E0" to="E2" fromLane="2" toLane="2" via=":J23_0_2" dir="s" state="M"/>
    <connection from="E0" to="E1" fromLane="3" toLane="0" via=":J23_3_0" dir="s" state="M"/>
    <connection from="E1" to="E42" fromLane="0" toLane="0" via=":J35_1_0" dir="s" state="m"/>
    <connection from="E2" to="E3" fromLane="0" toLane="0" via=":J30_0_0" dir="s" state="M"/>
    <connection from="E2" to="E3" fromLane="1" toLane="1" via=":J30_0_1" dir="s" state="M"/>
    <connection from="E2" to="E3" fromLane="2" toLane="2" via=":J30_0_2" dir="s" state="M"/>
    <connection from="E2" to="E4" fromLane="2" toLane="0" via=":J30_3_0" dir="L" state="M"/>
    <connection from="E4" to="E42" fromLane="0" toLane="0" via=":J35_0_0" dir="s" state="M"/>
    <connection from="E42" to="E43" fromLane="0" toLane="0" via=":J37_0_0" tl="J37" linkIndex="0" dir="s" state="O"/>

    <connection from=":J23_0" to="E2" fromLane="0" toLane="0" dir="s" state="M"/>
    <connection from=":J23_0" to="E2" fromLane="1" toLane="1" dir="s" state="M"/>
    <connection from=":J23_0" to="E2" fromLane="2" toLane="2" dir="s" state="M"/>
    <connection from=":J23_3" to="E1" fromLane="0" toLane="0" dir="s" state="M"/>
    <connection from=":J30_0" to="E3" fromLane="0" toLane="0" dir="s" state="M"/>
    <connection from=":J30_0" to="E3" fromLane="1" toLane="1" dir="s" state="M"/>
    <connection from=":J30_0" to="E3" fromLane="2" toLane="2" dir="s" state="M"/>
    <connection from=":J30_3" to="E4" fromLane="0" toLane="0" dir="L" state="M"/>
    <connection from=":J35_0" to="E42" fromLane="0" toLane="0" dir="s" state="M"/>
    <connection from=":J35_1" to="E42" fromLane="0" toLane="0" dir="s" state="M"/>
    <connection from=":J37_0" to="E43" fromLane="0" toLane="0" dir="s" state="M"/>

</net>
