<?xml version="1.0" encoding="UTF-8"?>

<!-- generated on 2026-06-15T21:16:53.679892+09:00 by Eclipse SUMO netconvert 1.27.0
<netconvertConfiguration xmlns:xsi="http://www.w3.org/2001/XMLSchema-instance" xsi:noNamespaceSchemaLocation="http://sumo.dlr.de/xsd/netconvertConfiguration.xsd">

    <input>
        <node-files value="diverge.nod.xml"/>
        <edge-files value="diverge.edg.xml"/>
        <connection-files value="diverge.con.xml"/>
    </input>

    <output>
        <output-file value="diverge.net.xml"/>
    </output>

</netconvertConfiguration>
-->

<net version="1.20" junctionCornerDetail="5" limitTurnSpeed="5.50" xmlns:xsi="http://www.w3.org/2001/XMLSchema-instance" xsi:noNamespaceSchemaLocation="http://sumo.dlr.de/xsd/net_file.xsd">

    <location netOffset="1000.00,55.00" convBoundary="0.00,0.00,1115.00,55.00" origBoundary="-1000.00,-55.00,115.00,0.00" projParameter="!"/>

    <edge id=":DivergeStart_0" function="internal">
        <lane id=":DivergeStart_0_0" index="0" speed="21.49" length="15.33" shape="1008.66,47.00 1013.45,46.56 1016.96,45.42 1019.91,43.89 1022.99,42.23"/>
    </edge>
    <edge id=":DivergeStart_1" function="internal">
        <lane id=":DivergeStart_1_0" index="0" speed="27.78" length="15.42" shape="1008.66,47.00 1024.07,47.00"/>
        <lane id=":DivergeStart_1_1" index="1" speed="27.78" length="15.42" shape="1008.66,50.20 1024.07,50.20"/>
        <lane id=":DivergeStart_1_2" index="2" speed="27.78" length="15.42" shape="1008.66,53.40 1024.07,53.40"/>
    </edge>

    <edge id="DivergeZone" from="MainStart" to="DivergeStart" priority="10">
        <lane id="DivergeZone_0" index="0" speed="27.78" length="1008.66" shape="0.00,47.00 1008.66,47.00"/>
        <lane id="DivergeZone_1" index="1" speed="27.78" length="1008.66" shape="0.00,50.20 1008.66,50.20"/>
        <lane id="DivergeZone_2" index="2" speed="27.78" length="1008.66" shape="0.00,53.40 1008.66,53.40"/>
    </edge>
    <edge id="ExitRamp" from="DivergeStart" to="ExitEnd" priority="1">
        <lane id="ExitRamp_0" index="0" speed="27.78" length="101.23" shape="1022.99,42.23 1114.31,-1.44"/>
    </edge>
    <edge id="MainLane" from="DivergeStart" to="End" priority="10">
        <lane id="MainLane_0" index="0" speed="27.78" length="25.93" shape="1024.07,47.00 1050.00,47.00"/>
        <lane id="MainLane_1" index="1" speed="27.78" length="25.93" shape="1024.07,50.20 1050.00,50.20"/>
        <lane id="MainLane_2" index="2" speed="27.78" length="25.93" shape="1024.07,53.40 1050.00,53.40"/>
    </edge>

    <junction id="DivergeStart" type="priority" x="1000.00" y="55.00" incLanes="DivergeZone_0 DivergeZone_1 DivergeZone_2" intLanes=":DivergeStart_0_0 :DivergeStart_1_0 :DivergeStart_1_1 :DivergeStart_1_2" shape="1024.07,55.00 1024.07,45.40 1023.68,43.67 1022.30,40.79 1019.53,42.21 1017.48,43.36 1015.74,44.26 1013.95,44.89 1011.72,45.27 1008.66,45.40 1008.66,55.00">
        <request index="0" response="0000" foes="0000" cont="0"/>
        <request index="1" response="0000" foes="0000" cont="0"/>
        <request index="2" response="0000" foes="0000" cont="0"/>
        <request index="3" response="0000" foes="0000" cont="0"/>
    </junction>
    <junction id="End" type="dead_end" x="1050.00" y="55.00" incLanes="MainLane_0 MainLane_1 MainLane_2" intLanes="" shape="1050.00,45.40 1050.00,55.00"/>
    <junction id="ExitEnd" type="dead_end" x="1115.00" y="0.00" incLanes="ExitRamp_0" intLanes="" shape="1113.62,-2.89 1115.00,0.00"/>
    <junction id="MainStart" type="dead_end" x="0.00" y="55.00" incLanes="" intLanes="" shape="0.00,55.00 0.00,45.40"/>

    <connection from="DivergeZone" to="ExitRamp" fromLane="0" toLane="0" via=":DivergeStart_0_0" dir="R" state="M"/>
    <connection from="DivergeZone" to="MainLane" fromLane="0" toLane="0" via=":DivergeStart_1_0" dir="s" state="M"/>
    <connection from="DivergeZone" to="MainLane" fromLane="1" toLane="1" via=":DivergeStart_1_1" dir="s" state="M"/>
    <connection from="DivergeZone" to="MainLane" fromLane="2" toLane="2" via=":DivergeStart_1_2" dir="s" state="M"/>

    <connection from=":DivergeStart_0" to="ExitRamp" fromLane="0" toLane="0" dir="R" state="M"/>
    <connection from=":DivergeStart_1" to="MainLane" fromLane="0" toLane="0" dir="s" state="M"/>
    <connection from=":DivergeStart_1" to="MainLane" fromLane="1" toLane="1" dir="s" state="M"/>
    <connection from=":DivergeStart_1" to="MainLane" fromLane="2" toLane="2" dir="s" state="M"/>

</net>
