<?xml version="1.0" encoding="UTF-8"?>

<!-- generated on 2026-06-15T20:25:48.843172+09:00 by Eclipse SUMO netconvert 1.27.0
<netconvertConfiguration xmlns:xsi="http://www.w3.org/2001/XMLSchema-instance" xsi:noNamespaceSchemaLocation="http://sumo.dlr.de/xsd/netconvertConfiguration.xsd">

    <input>
        <node-files value="diverge.nod.xml"/>
        <edge-files value="diverge.edg.xml"/>
    </input>

    <output>
        <output-file value="diverge.net.xml"/>
    </output>

    <ramp_guessing>
        <ramps.guess value="true"/>
        <ramps.ramp-length value="600"/>
    </ramp_guessing>

</netconvertConfiguration>
-->

<net version="1.20" junctionCornerDetail="5" limitTurnSpeed="5.50" xmlns:xsi="http://www.w3.org/2001/XMLSchema-instance" xsi:noNamespaceSchemaLocation="http://sumo.dlr.de/xsd/net_file.xsd">

    <location netOffset="650.00,50.00" convBoundary="0.00,0.00,750.00,50.00" origBoundary="-650.00,-50.00,100.00,0.00" projParameter="!"/>

    <edge id=":DivergeNode_0" function="internal">
        <lane id=":DivergeNode_0_0" index="0" speed="12.90" length="3.60" shape="647.88,38.80 648.94,38.79 649.67,38.71 650.38,38.51 651.37,38.12"/>
    </edge>
    <edge id=":DivergeNode_1" function="internal">
        <lane id=":DivergeNode_1_0" index="0" speed="27.78" length="3.62" shape="647.88,42.00 651.50,42.00"/>
        <lane id=":DivergeNode_1_1" index="1" speed="27.78" length="3.62" shape="647.88,45.20 651.50,45.20"/>
        <lane id=":DivergeNode_1_2" index="2" speed="27.78" length="3.62" shape="647.88,48.40 651.50,48.40"/>
    </edge>
    <edge id=":DivergeStart_0" function="internal">
        <lane id=":DivergeStart_0_0" index="0" speed="27.78" length="8.20" shape="46.00,42.00 48.46,41.50 50.00,40.40 51.54,39.30 54.00,38.80"/>
        <lane id=":DivergeStart_0_1" index="1" speed="27.78" length="8.20" shape="46.00,42.00 54.00,42.00"/>
        <lane id=":DivergeStart_0_2" index="2" speed="27.78" length="8.20" shape="46.00,45.20 54.00,45.20"/>
        <lane id=":DivergeStart_0_3" index="3" speed="27.78" length="8.20" shape="46.00,48.40 54.00,48.40"/>
    </edge>

    <edge id="ExitRamp" from="DivergeNode" to="ExitEnd" priority="1" shape="650.00,40.40 750.00,0.00">
        <lane id="ExitRamp_0" index="0" speed="27.78" length="105.73" shape="651.37,38.12 749.40,-1.48"/>
    </edge>
    <edge id="MainApproach" from="MainStart" to="DivergeStart" priority="10">
        <lane id="MainApproach_0" index="0" speed="27.78" length="46.00" shape="0.00,42.00 46.00,42.00"/>
        <lane id="MainApproach_1" index="1" speed="27.78" length="46.00" shape="0.00,45.20 46.00,45.20"/>
        <lane id="MainApproach_2" index="2" speed="27.78" length="46.00" shape="0.00,48.40 46.00,48.40"/>
    </edge>
    <edge id="DivergeZone" from="DivergeStart" to="DivergeNode" priority="10">
        <lane id="DivergeZone_0" index="0" speed="27.78" length="593.88" shape="54.00,38.80 647.88,38.80"/>
        <lane id="DivergeZone_1" index="1" speed="27.78" length="593.88" shape="54.00,42.00 647.88,42.00"/>
        <lane id="DivergeZone_2" index="2" speed="27.78" length="593.88" shape="54.00,45.20 647.88,45.20"/>
        <lane id="DivergeZone_3" index="3" speed="27.78" length="593.88" shape="54.00,48.40 647.88,48.40"/>
    </edge>
    <edge id="MainLane" from="DivergeNode" to="End" priority="10">
        <lane id="MainLane_0" index="0" speed="27.78" length="94.50" shape="651.50,42.00 746.00,42.00"/>
        <lane id="MainLane_1" index="1" speed="27.78" length="94.50" shape="651.50,45.20 746.00,45.20"/>
        <lane id="MainLane_2" index="2" speed="27.78" length="94.50" shape="651.50,48.40 746.00,48.40"/>
    </edge>

    <junction id="DivergeNode" type="priority" x="650.00" y="50.00" incLanes="DivergeZone_0 DivergeZone_1 DivergeZone_2 DivergeZone_3" intLanes=":DivergeNode_0_0 :DivergeNode_1_0 :DivergeNode_1_1 :DivergeNode_1_2" shape="651.50,50.00 651.50,40.40 651.97,39.61 650.77,36.64 649.74,37.03 649.36,37.13 648.98,37.18 648.51,37.20 647.88,37.20 647.88,50.00">
        <request index="0" response="0000" foes="0000" cont="0"/>
        <request index="1" response="0000" foes="0000" cont="0"/>
        <request index="2" response="0000" foes="0000" cont="0"/>
        <request index="3" response="0000" foes="0000" cont="0"/>
    </junction>
    <junction id="End" type="dead_end" x="746.00" y="50.00" incLanes="MainLane_0 MainLane_1 MainLane_2" intLanes="" shape="746.00,40.40 746.00,50.00"/>
    <junction id="ExitEnd" type="dead_end" x="750.00" y="0.00" incLanes="ExitRamp_0" intLanes="" shape="748.80,-2.97 750.00,0.00"/>
    <junction id="DivergeStart" type="priority" x="50.00" y="50.00" incLanes="MainApproach_0 MainApproach_1 MainApproach_2" intLanes=":DivergeStart_0_0 :DivergeStart_0_1 :DivergeStart_0_2 :DivergeStart_0_3" shape="54.00,50.00 54.00,37.20 50.97,38.03 49.03,39.57 47.79,40.16 46.00,40.40 46.00,50.00">
        <request index="0" response="0000" foes="0000" cont="0"/>
        <request index="1" response="0000" foes="0000" cont="0"/>
        <request index="2" response="0000" foes="0000" cont="0"/>
        <request index="3" response="0000" foes="0000" cont="0"/>
    </junction>
    <junction id="MainStart" type="dead_end" x="0.00" y="50.00" incLanes="" intLanes="" shape="0.00,50.00 0.00,40.40"/>

    <connection from="MainApproach" to="DivergeZone" fromLane="0" toLane="0" via=":DivergeStart_0_0" dir="s" state="M"/>
    <connection from="MainApproach" to="DivergeZone" fromLane="0" toLane="1" via=":DivergeStart_0_1" dir="s" state="M"/>
    <connection from="MainApproach" to="DivergeZone" fromLane="1" toLane="2" via=":DivergeStart_0_2" dir="s" state="M"/>
    <connection from="MainApproach" to="DivergeZone" fromLane="2" toLane="3" via=":DivergeStart_0_3" dir="s" state="M"/>
    <connection from="DivergeZone" to="ExitRamp" fromLane="0" toLane="0" via=":DivergeNode_0_0" dir="R" state="M"/>
    <connection from="DivergeZone" to="MainLane" fromLane="1" toLane="0" via=":DivergeNode_1_0" dir="s" state="M"/>
    <connection from="DivergeZone" to="MainLane" fromLane="2" toLane="1" via=":DivergeNode_1_1" dir="s" state="M"/>
    <connection from="DivergeZone" to="MainLane" fromLane="3" toLane="2" via=":DivergeNode_1_2" dir="s" state="M"/>

    <connection from=":DivergeNode_0" to="ExitRamp" fromLane="0" toLane="0" dir="R" state="M"/>
    <connection from=":DivergeNode_1" to="MainLane" fromLane="0" toLane="0" dir="s" state="M"/>
    <connection from=":DivergeNode_1" to="MainLane" fromLane="1" toLane="1" dir="s" state="M"/>
    <connection from=":DivergeNode_1" to="MainLane" fromLane="2" toLane="2" dir="s" state="M"/>
    <connection from=":DivergeStart_0" to="DivergeZone" fromLane="0" toLane="0" dir="s" state="M"/>
    <connection from=":DivergeStart_0" to="DivergeZone" fromLane="1" toLane="1" dir="s" state="M"/>
    <connection from=":DivergeStart_0" to="DivergeZone" fromLane="2" toLane="2" dir="s" state="M"/>
    <connection from=":DivergeStart_0" to="DivergeZone" fromLane="3" toLane="3" dir="s" state="M"/>

</net>
