<nodes>
    <node id="MainStart"   x="-650.0" y="0.0"   type="dead_end"/>
    <node id="DivergeNode" x="0.0"    y="0.0"   type="priority"/>
    <node id="End"         x="96.0"   y="0.0"   type="dead_end"/>
    <node id="ExitEnd"     x="100.0"  y="-50.0" type="dead_end"/>
</nodes>
