<?xml version="1.0" encoding="UTF-8"?>

<!-- generated on 2026-06-16T12:25:47.486807+09:00 by Eclipse SUMO netconvert 1.27.0
<netconvertConfiguration xmlns:xsi="http://www.w3.org/2001/XMLSchema-instance" xsi:noNamespaceSchemaLocation="http://sumo.dlr.de/xsd/netconvertConfiguration.xsd">

    <input>
        <node-files value="diverge.nod.xml"/>
        <edge-files value="diverge.edg.xml"/>
        <connection-files value="diverge.con.xml"/>
    </input>

    <output>
        <output-file value="diverge.net.xml"/>
    </output>

</netconvertConfiguration>
-->

<net version="1.20" junctionCornerDetail="5" limitTurnSpeed="5.50" xmlns:xsi="http://www.w3.org/2001/XMLSchema-instance" xsi:noNamespaceSchemaLocation="http://sumo.dlr.de/xsd/net_file.xsd">

    <location netOffset="1000.00,11.40" convBoundary="0.00,0.00,1072.00,11.40" origBoundary="-1000.00,-11.40,72.00,0.00" projParameter="!"/>

    <edge id=":DivergeStart_0" function="internal">
        <lane id=":DivergeStart_0_0" index="0" speed="27.78" length="13.71" shape="1005.70,3.40 1009.86,2.85 1012.78,1.53 1015.34,-0.01 1018.42,-1.25"/>
    </edge>
    <edge id=":DivergeStart_1" function="internal">
        <lane id=":DivergeStart_1_0" index="0" speed="27.78" length="13.45" shape="1005.70,3.40 1019.16,3.40"/>
        <lane id=":DivergeStart_1_1" index="1" speed="27.78" length="13.45" shape="1005.70,6.60 1019.16,6.60"/>
        <lane id=":DivergeStart_1_2" index="2" speed="27.78" length="13.45" shape="1005.70,9.80 1019.16,9.80"/>
    </edge>

    <edge id="DivergeZone" from="MainStart" to="DivergeStart" priority="10">
        <lane id="DivergeZone_0" index="0" speed="27.78" length="1005.70" shape="0.00,3.40 1005.70,3.40"/>
        <lane id="DivergeZone_1" index="1" speed="27.78" length="1005.70" shape="0.00,6.60 1005.70,6.60"/>
        <lane id="DivergeZone_2" index="2" speed="27.78" length="1005.70" shape="0.00,9.80 1005.70,9.80"/>
    </edge>
    <edge id="ExitRamp" from="DivergeStart" to="ExitEnd" priority="1" shape="1000.00,11.40 1003.33,10.56 1006.67,8.44 1010.00,5.70 1013.33,2.96 1016.67,0.84 1020.00,0.00 1072.00,0.00">
        <lane id="ExitRamp_0" index="0" speed="27.78" length="53.62" shape="1018.42,-1.25 1019.80,-1.60 1072.00,-1.60"/>
    </edge>
    <edge id="MainLane" from="DivergeStart" to="End" priority="10">
        <lane id="MainLane_0" index="0" speed="27.78" length="49.84" shape="1019.16,3.40 1069.00,3.40"/>
        <lane id="MainLane_1" index="1" speed="27.78" length="49.84" shape="1019.16,6.60 1069.00,6.60"/>
        <lane id="MainLane_2" index="2" speed="27.78" length="49.84" shape="1019.16,9.80 1069.00,9.80"/>
    </edge>

    <junction id="DivergeStart" type="priority" x="1000.00" y="11.40" incLanes="DivergeZone_0 DivergeZone_1 DivergeZone_2" intLanes=":DivergeStart_0_0 :DivergeStart_1_0 :DivergeStart_1_1 :DivergeStart_1_2" shape="1019.16,11.40 1019.16,1.80 1018.81,0.30 1018.03,-2.80 1015.36,-1.90 1013.46,-0.89 1011.94,0.10 1010.41,0.96 1008.46,1.57 1005.70,1.80 1005.70,11.40">
        <request index="0" response="0000" foes="0000" cont="0"/>
        <request index="1" response="0000" foes="0000" cont="0"/>
        <request index="2" response="0000" foes="0000" cont="0"/>
        <request index="3" response="0000" foes="0000" cont="0"/>
    </junction>
    <junction id="End" type="dead_end" x="1069.00" y="11.40" incLanes="MainLane_0 MainLane_1 MainLane_2" intLanes="" shape="1069.00,1.80 1069.00,11.40"/>
    <junction id="ExitEnd" type="dead_end" x="1072.00" y="0.00" incLanes="ExitRamp_0" intLanes="" shape="1072.00,-3.20 1072.00,0.00"/>
    <junction id="MainStart" type="dead_end" x="0.00" y="11.40" incLanes="" intLanes="" shape="0.00,11.40 0.00,1.80"/>

    <connection from="DivergeZone" to="ExitRamp" fromLane="0" toLane="0" via=":DivergeStart_0_0" dir="R" state="M"/>
    <connection from="DivergeZone" to="MainLane" fromLane="0" toLane="0" via=":DivergeStart_1_0" dir="s" state="M"/>
    <connection from="DivergeZone" to="MainLane" fromLane="1" toLane="1" via=":DivergeStart_1_1" dir="s" state="M"/>
    <connection from="DivergeZone" to="MainLane" fromLane="2" toLane="2" via=":DivergeStart_1_2" dir="s" state="M"/>

    <connection from=":DivergeStart_0" to="ExitRamp" fromLane="0" toLane="0" dir="R" state="M"/>
    <connection from=":DivergeStart_1" to="MainLane" fromLane="0" toLane="0" dir="s" state="M"/>
    <connection from=":DivergeStart_1" to="MainLane" fromLane="1" toLane="1" dir="s" state="M"/>
    <connection from=":DivergeStart_1" to="MainLane" fromLane="2" toLane="2" dir="s" state="M"/>

</net>
