<?xml version="1.0" encoding="UTF-8"?>

<!-- generated on 2026-06-15T19:22:55.421938+09:00 by Eclipse SUMO netconvert 1.27.0
<netconvertConfiguration xmlns:xsi="http://www.w3.org/2001/XMLSchema-instance" xsi:noNamespaceSchemaLocation="http://sumo.dlr.de/xsd/netconvertConfiguration.xsd">

    <input>
        <node-files value="diverge.nod.xml"/>
        <edge-files value="diverge.edg.xml"/>
    </input>

    <output>
        <output-file value="diverge.net.xml"/>
    </output>

    <ramp_guessing>
        <ramps.guess value="true"/>
        <ramps.ramp-length value="100"/>
    </ramp_guessing>

</netconvertConfiguration>
-->

<net version="1.20" junctionCornerDetail="5" limitTurnSpeed="5.50" xmlns:xsi="http://www.w3.org/2001/XMLSchema-instance" xsi:noNamespaceSchemaLocation="http://sumo.dlr.de/xsd/net_file.xsd">

    <location netOffset="250.00,50.00" convBoundary="0.00,0.00,350.00,50.00" origBoundary="-250.00,-50.00,100.00,0.00" projParameter="!"/>

    <edge id=":DivergeNode_0" function="internal">
        <lane id=":DivergeNode_0_0" index="0" speed="11.76" length="3.64" shape="247.83,42.00 248.91,41.99 249.65,41.90 250.36,41.68 251.35,41.27"/>
    </edge>
    <edge id=":DivergeNode_1" function="internal">
        <lane id=":DivergeNode_1_0" index="0" speed="27.78" length="3.67" shape="247.83,45.20 251.50,45.20"/>
        <lane id=":DivergeNode_1_1" index="1" speed="27.78" length="3.67" shape="247.83,48.40 251.50,48.40"/>
    </edge>
    <edge id=":DivergeStart_0" function="internal">
        <lane id=":DivergeStart_0_0" index="0" speed="27.78" length="8.27" shape="146.00,45.20 148.46,44.70 150.00,43.60 151.54,42.50 154.00,42.00"/>
        <lane id=":DivergeStart_0_1" index="1" speed="27.78" length="8.27" shape="146.00,45.20 154.00,45.20"/>
        <lane id=":DivergeStart_0_2" index="2" speed="27.78" length="8.27" shape="146.00,48.40 154.00,48.40"/>
    </edge>

    <edge id="ExitRamp" from="DivergeNode" to="ExitEnd" priority="1" shape="250.00,43.60 350.00,0.00">
        <lane id="ExitRamp_0" index="0" speed="27.78" length="106.92" shape="251.35,41.27 349.36,-1.47"/>
    </edge>
    <edge id="MainApproach" from="MainStart" to="DivergeStart" priority="10">
        <lane id="MainApproach_0" index="0" speed="27.78" length="146.00" shape="0.00,45.20 146.00,45.20"/>
        <lane id="MainApproach_1" index="1" speed="27.78" length="146.00" shape="0.00,48.40 146.00,48.40"/>
    </edge>
    <edge id="DivergeZone" from="DivergeStart" to="DivergeNode" priority="10">
        <lane id="DivergeZone_0" index="0" speed="27.78" length="93.83" shape="154.00,42.00 247.83,42.00"/>
        <lane id="DivergeZone_1" index="1" speed="27.78" length="93.83" shape="154.00,45.20 247.83,45.20"/>
        <lane id="DivergeZone_2" index="2" speed="27.78" length="93.83" shape="154.00,48.40 247.83,48.40"/>
    </edge>
    <edge id="MainLane" from="DivergeNode" to="End" priority="10">
        <lane id="MainLane_0" index="0" speed="27.78" length="94.50" shape="251.50,45.20 346.00,45.20"/>
        <lane id="MainLane_1" index="1" speed="27.78" length="94.50" shape="251.50,48.40 346.00,48.40"/>
    </edge>

    <junction id="DivergeNode" type="priority" x="250.00" y="50.00" incLanes="DivergeZone_0 DivergeZone_1 DivergeZone_2" intLanes=":DivergeNode_0_0 :DivergeNode_1_0 :DivergeNode_1_1" shape="251.50,50.00 251.50,43.60 251.99,42.73 250.71,39.80 249.69,40.22 249.32,40.32 248.93,40.37 248.46,40.40 247.83,40.40 247.83,50.00">
        <request index="0" response="000" foes="000" cont="0"/>
        <request index="1" response="000" foes="000" cont="0"/>
        <request index="2" response="000" foes="000" cont="0"/>
    </junction>
    <junction id="End" type="dead_end" x="346.00" y="50.00" incLanes="MainLane_0 MainLane_1" intLanes="" shape="346.00,43.60 346.00,50.00"/>
    <junction id="ExitEnd" type="dead_end" x="350.00" y="0.00" incLanes="ExitRamp_0" intLanes="" shape="348.72,-2.93 350.00,-0.00"/>
    <junction id="DivergeStart" type="priority" x="150.00" y="50.00" incLanes="MainApproach_0 MainApproach_1" intLanes=":DivergeStart_0_0 :DivergeStart_0_1 :DivergeStart_0_2" shape="154.00,50.00 154.00,40.40 150.97,41.23 149.03,42.77 147.79,43.36 146.00,43.60 146.00,50.00">
        <request index="0" response="000" foes="000" cont="0"/>
        <request index="1" response="000" foes="000" cont="0"/>
        <request index="2" response="000" foes="000" cont="0"/>
    </junction>
    <junction id="MainStart" type="dead_end" x="0.00" y="50.00" incLanes="" intLanes="" shape="0.00,50.00 0.00,43.60"/>

    <connection from="MainApproach" to="DivergeZone" fromLane="0" toLane="0" via=":DivergeStart_0_0" dir="s" state="M"/>
    <connection from="MainApproach" to="DivergeZone" fromLane="0" toLane="1" via=":DivergeStart_0_1" dir="s" state="M"/>
    <connection from="MainApproach" to="DivergeZone" fromLane="1" toLane="2" via=":DivergeStart_0_2" dir="s" state="M"/>
    <connection from="DivergeZone" to="ExitRamp" fromLane="0" toLane="0" via=":DivergeNode_0_0" dir="R" state="M"/>
    <connection from="DivergeZone" to="MainLane" fromLane="1" toLane="0" via=":DivergeNode_1_0" dir="s" state="M"/>
    <connection from="DivergeZone" to="MainLane" fromLane="2" toLane="1" via=":DivergeNode_1_1" dir="s" state="M"/>

    <connection from=":DivergeNode_0" to="ExitRamp" fromLane="0" toLane="0" dir="R" state="M"/>
    <connection from=":DivergeNode_1" to="MainLane" fromLane="0" toLane="0" dir="s" state="M"/>
    <connection from=":DivergeNode_1" to="MainLane" fromLane="1" toLane="1" dir="s" state="M"/>
    <connection from=":DivergeStart_0" to="DivergeZone" fromLane="0" toLane="0" dir="s" state="M"/>
    <connection from=":DivergeStart_0" to="DivergeZone" fromLane="1" toLane="1" dir="s" state="M"/>
    <connection from=":DivergeStart_0" to="DivergeZone" fromLane="2" toLane="2" dir="s" state="M"/>

</net>
