<edges>
    <edge id="MainApproach" from="MainStart" to="DivergeNode" numLanes="3" speed="27.78" priority="10"/>
    <edge id="MainLane" from="DivergeNode" to="End" numLanes="3" speed="27.78" priority="10"/>
    <edge id="ExitRamp" from="DivergeNode" to="ExitEnd" numLanes="1" speed="27.78" priority="1"/>
</edges>
