<edges>
    <edge id="DivergeZone" from="MainStart" to="DivergeStart" numLanes="3" speed="27.78" priority="10"/>
    <edge id="MainLane" from="DivergeStart" to="End" numLanes="3" speed="27.78" priority="10"/>
    <!-- 分岐直後に下へ降り(0,0→12,-11.4)その後は本線と平行(水平 -11.4)に伸ばす -->
    <edge id="ExitRamp" from="DivergeStart" to="ExitEnd" numLanes="1" speed="27.78" priority="1" shape="0.00,0.00 12.00,-11.40 58.00,-11.40"/>
</edges>
