<nodes>
    <node id="MainStart"    x="-1000.0" y="0.0"   type="dead_end"/>
    <node id="DivergeStart" x="0.0"     y="0.0"   type="priority"/>
    <node id="End"          x="69.0"    y="0.0"   type="dead_end"/>
    <node id="ExitEnd"      x="72.0"    y="-11.4" type="dead_end"/>
</nodes>
