<edges>
    <edge id="DivergeZone" from="MainStart" to="DivergeStart" numLanes="3" speed="27.78" priority="10"/>
    <edge id="MainLane" from="DivergeStart" to="End" numLanes="3" speed="27.78" priority="10"/>
    <edge id="ExitRamp" from="DivergeStart" to="ExitEnd" numLanes="1" speed="27.78" priority="1"/>
</edges>
