<routes>
    <vType id="CAV" accel="10.0" decel="5.0" maxSpeed="27" length="5" speedFactor="1.0" speedDev="0.0"/>
    <route id="r_main" edges="Road"/>
</routes>
