<?xml version="1.0" encoding="UTF-8"?>

<!-- generated on 2026-06-14T17:22:12.488636+09:00 by Eclipse SUMO netconvert 1.27.0
<netconvertConfiguration xmlns:xsi="http://www.w3.org/2001/XMLSchema-instance" xsi:noNamespaceSchemaLocation="http://sumo.dlr.de/xsd/netconvertConfiguration.xsd">

    <input>
        <node-files value="blockage.nod.xml"/>
        <edge-files value="blockage.edg.xml"/>
    </input>

    <output>
        <output-file value="blockage.net.xml"/>
    </output>

</netconvertConfiguration>
-->

<net version="1.20" junctionCornerDetail="5" limitTurnSpeed="5.50" xmlns:xsi="http://www.w3.org/2001/XMLSchema-instance" xsi:noNamespaceSchemaLocation="http://sumo.dlr.de/xsd/net_file.xsd">

    <location netOffset="0.00,0.00" convBoundary="0.00,0.00,2500.00,0.00" origBoundary="0.00,0.00,2500.00,0.00" projParameter="!"/>

    <edge id="Road" from="Start" to="End" priority="-1">
        <lane id="Road_0" index="0" speed="27.78" length="2500.00" shape="-0.00,-8.00 2500.00,-8.00"/>
        <lane id="Road_1" index="1" speed="27.78" length="2500.00" shape="-0.00,-4.80 2500.00,-4.80"/>
        <lane id="Road_2" index="2" speed="27.78" length="2500.00" shape="-0.00,-1.60 2500.00,-1.60"/>
    </edge>

    <junction id="End" type="dead_end" x="2500.00" y="0.00" incLanes="Road_0 Road_1 Road_2" intLanes="" shape="2500.00,-9.60 2500.00,0.00"/>
    <junction id="Start" type="dead_end" x="0.00" y="0.00" incLanes="" intLanes="" shape="-0.00,0.00 -0.00,-9.60"/>

</net>
