<nodes>
    <node id="Start" x="0.0" y="0.0" type="dead_end"/>
    <node id="End" x="800.0" y="0.0" type="dead_end"/>
</nodes>
