<routes>
    <vType id="CAV" accel="10.0" decel="5.0" maxSpeed="27" length="5" speedFactor="1.0" speedDev="0.0"/>
    <!-- 直進（必須LCなし）: 独立区間の本線 → 合流ゾーン → tail -->
    <route id="r_main" edges="MainApproach MergeZone MainLane" color="255,255,255"/>
    <!-- 合流: 合流ランプ → 合流ゾーン(加速車線) → tail -->
    <route id="r_ramp" edges="OnRamp MergeZone MainLane" color="0,255,255"/>
</routes>
