<?xml version="1.0" encoding="UTF-8"?>

<!-- generated on 2026-06-15T17:52:50.197737+09:00 by Eclipse SUMO netconvert 1.27.0
<netconvertConfiguration xmlns:xsi="http://www.w3.org/2001/XMLSchema-instance" xsi:noNamespaceSchemaLocation="http://sumo.dlr.de/xsd/netconvertConfiguration.xsd">

    <input>
        <node-files value="merge.nod.xml"/>
        <edge-files value="merge.edg.xml"/>
    </input>

    <output>
        <output-file value="merge.net.xml"/>
    </output>

    <ramp_guessing>
        <ramps.guess value="true"/>
        <ramps.ramp-length value="200"/>
    </ramp_guessing>

</netconvertConfiguration>
-->

<net version="1.20" junctionCornerDetail="5" limitTurnSpeed="5.50" xmlns:xsi="http://www.w3.org/2001/XMLSchema-instance" xsi:noNamespaceSchemaLocation="http://sumo.dlr.de/xsd/net_file.xsd">

    <location netOffset="150.00,18.00" convBoundary="0.00,0.00,450.00,18.00" origBoundary="-150.00,-18.00,300.00,0.00" projParameter="!"/>

    <edge id=":AccelEnd_0" function="internal">
        <lane id=":AccelEnd_0_0" index="0" speed="27.78" length="8.00" shape="346.00,13.20 354.00,13.20"/>
        <lane id=":AccelEnd_0_1" index="1" speed="27.78" length="8.00" shape="346.00,16.40 354.00,16.40"/>
    </edge>
    <edge id=":MergeNode_0" function="internal">
        <lane id=":MergeNode_0_0" index="0" speed="27.78" length="3.15" shape="148.51,9.85 149.44,9.94 150.08,9.98 150.72,10.00 151.65,10.00"/>
    </edge>
    <edge id=":MergeNode_1" function="internal">
        <lane id=":MergeNode_1_0" index="0" speed="27.78" length="3.15" shape="148.50,13.20 151.65,13.20"/>
        <lane id=":MergeNode_1_1" index="1" speed="27.78" length="3.15" shape="148.50,16.40 151.65,16.40"/>
    </edge>

    <edge id="MainApproach" from="MainStart" to="MergeNode" priority="10">
        <lane id="MainApproach_0" index="0" speed="27.78" length="148.50" shape="0.00,13.20 148.50,13.20"/>
        <lane id="MainApproach_1" index="1" speed="27.78" length="148.50" shape="0.00,16.40 148.50,16.40"/>
    </edge>
    <edge id="MainLane" from="AccelEnd" to="End" priority="10">
        <lane id="MainLane_0" index="0" speed="27.78" length="96.00" shape="354.00,13.20 450.00,13.20"/>
        <lane id="MainLane_1" index="1" speed="27.78" length="96.00" shape="354.00,16.40 450.00,16.40"/>
    </edge>
    <edge id="MergeZone" from="MergeNode" to="AccelEnd" priority="10">
        <lane id="MergeZone_0" index="0" speed="27.78" length="194.35" acceleration="1" shape="151.65,10.00 346.00,10.00"/>
        <lane id="MergeZone_1" index="1" speed="27.78" length="194.35" shape="151.65,13.20 346.00,13.20"/>
        <lane id="MergeZone_2" index="2" speed="27.78" length="194.35" shape="151.65,16.40 346.00,16.40"/>
    </edge>
    <edge id="OnRamp" from="RampStart" to="MergeNode" priority="1" shape="30.00,0.00 150.00,11.60">
        <lane id="OnRamp_0" index="0" speed="27.78" length="118.91" shape="30.15,-1.59 148.51,9.85"/>
    </edge>

    <junction id="End" type="dead_end" x="450.00" y="18.00" incLanes="MainLane_0 MainLane_1" intLanes="" shape="450.00,11.60 450.00,18.00"/>
    <junction id="AccelEnd" type="priority" x="350.00" y="18.00" incLanes="MergeZone_0 MergeZone_1 MergeZone_2" intLanes=":AccelEnd_0_0 :AccelEnd_0_1" shape="354.00,18.00 354.00,11.60 350.97,10.77 349.03,9.23 347.79,8.64 346.00,8.40 346.00,18.00">
        <request index="0" response="00" foes="00" cont="0"/>
        <request index="1" response="00" foes="00" cont="0"/>
    </junction>
    <junction id="MainStart" type="dead_end" x="0.00" y="18.00" incLanes="" intLanes="" shape="0.00,18.00 0.00,11.60"/>
    <junction id="MergeNode" type="priority" x="150.00" y="18.00" incLanes="OnRamp_0 MainApproach_0 MainApproach_1" intLanes=":MergeNode_0_0 :MergeNode_1_0 :MergeNode_1_1" shape="151.65,18.00 151.65,8.40 150.54,8.39 150.16,8.38 149.77,8.36 149.30,8.32 148.66,8.26 148.35,11.44 148.50,11.60 148.50,18.00">
        <request index="0" response="000" foes="000" cont="0"/>
        <request index="1" response="000" foes="000" cont="0"/>
        <request index="2" response="000" foes="000" cont="0"/>
    </junction>
    <junction id="RampStart" type="dead_end" x="30.00" y="0.00" incLanes="" intLanes="" shape="30.00,0.00 30.31,-3.19"/>

    <connection from="MainApproach" to="MergeZone" fromLane="0" toLane="1" via=":MergeNode_1_0" dir="s" state="M"/>
    <connection from="MainApproach" to="MergeZone" fromLane="1" toLane="2" via=":MergeNode_1_1" dir="s" state="M"/>
    <connection from="MergeZone" to="MainLane" fromLane="1" toLane="0" via=":AccelEnd_0_0" dir="s" state="M"/>
    <connection from="MergeZone" to="MainLane" fromLane="2" toLane="1" via=":AccelEnd_0_1" dir="s" state="M"/>
    <connection from="OnRamp" to="MergeZone" fromLane="0" toLane="0" via=":MergeNode_0_0" dir="s" state="M"/>

    <connection from=":AccelEnd_0" to="MainLane" fromLane="0" toLane="0" dir="s" state="M"/>
    <connection from=":AccelEnd_0" to="MainLane" fromLane="1" toLane="1" dir="s" state="M"/>
    <connection from=":MergeNode_0" to="MergeZone" fromLane="0" toLane="0" dir="s" state="M"/>
    <connection from=":MergeNode_1" to="MergeZone" fromLane="0" toLane="1" dir="s" state="M"/>
    <connection from=":MergeNode_1" to="MergeZone" fromLane="1" toLane="2" dir="s" state="M"/>

</net>
