<nodes>
    <node id="Start" x="0.0" y="0.0" type="dead_end"/>
    <node id="AccelEnd" x="200.0" y="0.0" type="priority"/>
    <node id="End" x="2500.0" y="0.0" type="dead_end"/>
</nodes>
