<?xml version="1.0" encoding="UTF-8"?>

<!-- generated on 2026-06-15T20:37:54.304468+09:00 by Eclipse SUMO netconvert 1.27.0
<netconvertConfiguration xmlns:xsi="http://www.w3.org/2001/XMLSchema-instance" xsi:noNamespaceSchemaLocation="http://sumo.dlr.de/xsd/netconvertConfiguration.xsd">

    <input>
        <node-files value="merge.nod.xml"/>
        <edge-files value="merge.edg.xml"/>
    </input>

    <output>
        <output-file value="merge.net.xml"/>
    </output>

    <ramp_guessing>
        <ramps.guess value="true"/>
        <ramps.ramp-length value="200"/>
    </ramp_guessing>

</netconvertConfiguration>
-->

<net version="1.20" junctionCornerDetail="5" limitTurnSpeed="5.50" xmlns:xsi="http://www.w3.org/2001/XMLSchema-instance" xsi:noNamespaceSchemaLocation="http://sumo.dlr.de/xsd/net_file.xsd">

    <location netOffset="100.00,15.00" convBoundary="0.00,0.00,350.00,15.00" origBoundary="-100.00,-15.00,250.00,0.00" projParameter="!"/>

    <edge id=":AccelEnd_0" function="internal">
        <lane id=":AccelEnd_0_0" index="0" speed="27.78" length="8.00" shape="296.00,10.20 304.00,10.20"/>
        <lane id=":AccelEnd_0_1" index="1" speed="27.78" length="8.00" shape="296.00,13.40 304.00,13.40"/>
    </edge>
    <edge id=":MergeNode_0" function="internal">
        <lane id=":MergeNode_0_0" index="0" speed="27.78" length="3.13" shape="98.51,6.87 101.64,7.00"/>
    </edge>
    <edge id=":MergeNode_1" function="internal">
        <lane id=":MergeNode_1_0" index="0" speed="27.78" length="3.14" shape="98.50,10.20 101.64,10.20"/>
        <lane id=":MergeNode_1_1" index="1" speed="27.78" length="3.14" shape="98.50,13.40 101.64,13.40"/>
    </edge>

    <edge id="MainApproach" from="MainStart" to="MergeNode" priority="10">
        <lane id="MainApproach_0" index="0" speed="27.78" length="48.50" shape="50.00,10.20 98.50,10.20"/>
        <lane id="MainApproach_1" index="1" speed="27.78" length="48.50" shape="50.00,13.40 98.50,13.40"/>
    </edge>
    <edge id="MainLane" from="AccelEnd" to="End" priority="10">
        <lane id="MainLane_0" index="0" speed="27.78" length="46.00" shape="304.00,10.20 350.00,10.20"/>
        <lane id="MainLane_1" index="1" speed="27.78" length="46.00" shape="304.00,13.40 350.00,13.40"/>
    </edge>
    <edge id="MergeZone" from="MergeNode" to="AccelEnd" priority="10">
        <lane id="MergeZone_0" index="0" speed="27.78" length="194.36" acceleration="1" shape="101.64,7.00 296.00,7.00"/>
        <lane id="MergeZone_1" index="1" speed="27.78" length="194.36" shape="101.64,10.20 296.00,10.20"/>
        <lane id="MergeZone_2" index="2" speed="27.78" length="194.36" shape="101.64,13.40 296.00,13.40"/>
    </edge>
    <edge id="OnRamp" from="RampStart" to="MergeNode" priority="1" shape="0.00,0.00 100.00,8.60">
        <lane id="OnRamp_0" index="0" speed="27.78" length="98.73" shape="0.14,-1.59 98.51,6.87"/>
    </edge>

    <junction id="End" type="dead_end" x="350.00" y="15.00" incLanes="MainLane_0 MainLane_1" intLanes="" shape="350.00,8.60 350.00,15.00"/>
    <junction id="AccelEnd" type="priority" x="300.00" y="15.00" incLanes="MergeZone_0 MergeZone_1 MergeZone_2" intLanes=":AccelEnd_0_0 :AccelEnd_0_1" shape="304.00,15.00 304.00,8.60 300.97,7.77 299.03,6.23 297.79,5.64 296.00,5.40 296.00,15.00">
        <request index="0" response="00" foes="00" cont="0"/>
        <request index="1" response="00" foes="00" cont="0"/>
    </junction>
    <junction id="MainStart" type="dead_end" x="50.00" y="15.00" incLanes="" intLanes="" shape="50.00,15.00 50.00,8.60"/>
    <junction id="MergeNode" type="priority" x="100.00" y="15.00" incLanes="OnRamp_0 MainApproach_0 MainApproach_1" intLanes=":MergeNode_0_0 :MergeNode_1_0 :MergeNode_1_1" shape="101.64,15.00 101.64,5.40 98.64,5.27 98.37,8.46 98.50,8.60 98.50,15.00">
        <request index="0" response="000" foes="000" cont="0"/>
        <request index="1" response="000" foes="000" cont="0"/>
        <request index="2" response="000" foes="000" cont="0"/>
    </junction>
    <junction id="RampStart" type="dead_end" x="0.00" y="0.00" incLanes="" intLanes="" shape="0.00,0.00 0.27,-3.19"/>

    <connection from="MainApproach" to="MergeZone" fromLane="0" toLane="1" via=":MergeNode_1_0" dir="s" state="M"/>
    <connection from="MainApproach" to="MergeZone" fromLane="1" toLane="2" via=":MergeNode_1_1" dir="s" state="M"/>
    <connection from="MergeZone" to="MainLane" fromLane="1" toLane="0" via=":AccelEnd_0_0" dir="s" state="M"/>
    <connection from="MergeZone" to="MainLane" fromLane="2" toLane="1" via=":AccelEnd_0_1" dir="s" state="M"/>
    <connection from="OnRamp" to="MergeZone" fromLane="0" toLane="0" via=":MergeNode_0_0" dir="s" state="M"/>

    <connection from=":AccelEnd_0" to="MainLane" fromLane="0" toLane="0" dir="s" state="M"/>
    <connection from=":AccelEnd_0" to="MainLane" fromLane="1" toLane="1" dir="s" state="M"/>
    <connection from=":MergeNode_0" to="MergeZone" fromLane="0" toLane="0" dir="s" state="M"/>
    <connection from=":MergeNode_1" to="MergeZone" fromLane="0" toLane="1" dir="s" state="M"/>
    <connection from=":MergeNode_1" to="MergeZone" fromLane="1" toLane="2" dir="s" state="M"/>

</net>
