<?xml version="1.0" encoding="UTF-8"?>

<!-- generated on 2026-06-15T20:34:18.365996+09:00 by Eclipse SUMO netconvert 1.27.0
<netconvertConfiguration xmlns:xsi="http://www.w3.org/2001/XMLSchema-instance" xsi:noNamespaceSchemaLocation="http://sumo.dlr.de/xsd/netconvertConfiguration.xsd">

    <input>
        <node-files value="merge.nod.xml"/>
        <edge-files value="merge.edg.xml"/>
    </input>

    <output>
        <output-file value="merge.net.xml"/>
    </output>

    <ramp_guessing>
        <ramps.guess value="true"/>
        <ramps.ramp-length value="200"/>
    </ramp_guessing>

</netconvertConfiguration>
-->

<net version="1.20" junctionCornerDetail="5" limitTurnSpeed="5.50" xmlns:xsi="http://www.w3.org/2001/XMLSchema-instance" xsi:noNamespaceSchemaLocation="http://sumo.dlr.de/xsd/net_file.xsd">

    <location netOffset="50.00,12.00" convBoundary="0.00,0.00,300.00,12.00" origBoundary="-50.00,-12.00,250.00,0.00" projParameter="!"/>

    <edge id=":AccelEnd_0" function="internal">
        <lane id=":AccelEnd_0_0" index="0" speed="27.78" length="8.00" shape="246.00,7.20 254.00,7.20"/>
        <lane id=":AccelEnd_0_1" index="1" speed="27.78" length="8.00" shape="246.00,10.40 254.00,10.40"/>
    </edge>
    <edge id=":MergeNode_0" function="internal">
        <lane id=":MergeNode_0_0" index="0" speed="27.78" length="3.18" shape="48.51,3.82 49.45,3.93 50.09,3.98 50.74,4.00 51.68,4.00"/>
    </edge>
    <edge id=":MergeNode_1" function="internal">
        <lane id=":MergeNode_1_0" index="0" speed="27.78" length="3.18" shape="48.50,7.20 51.68,7.20"/>
        <lane id=":MergeNode_1_1" index="1" speed="27.78" length="3.18" shape="48.50,10.40 51.68,10.40"/>
    </edge>

    <edge id="MainApproach" from="MainStart" to="MergeNode" priority="10">
        <lane id="MainApproach_0" index="0" speed="27.78" length="48.50" shape="0.00,7.20 48.50,7.20"/>
        <lane id="MainApproach_1" index="1" speed="27.78" length="48.50" shape="0.00,10.40 48.50,10.40"/>
    </edge>
    <edge id="MainLane" from="AccelEnd" to="End" priority="10">
        <lane id="MainLane_0" index="0" speed="27.78" length="46.00" shape="254.00,7.20 300.00,7.20"/>
        <lane id="MainLane_1" index="1" speed="27.78" length="46.00" shape="254.00,10.40 300.00,10.40"/>
    </edge>
    <edge id="MergeZone" from="MergeNode" to="AccelEnd" priority="10">
        <lane id="MergeZone_0" index="0" speed="27.78" length="194.32" acceleration="1" shape="51.68,4.00 246.00,4.00"/>
        <lane id="MergeZone_1" index="1" speed="27.78" length="194.32" shape="51.68,7.20 246.00,7.20"/>
        <lane id="MergeZone_2" index="2" speed="27.78" length="194.32" shape="51.68,10.40 246.00,10.40"/>
    </edge>
    <edge id="OnRamp" from="RampStart" to="MergeNode" priority="1" shape="0.00,0.00 50.00,5.60">
        <lane id="OnRamp_0" index="0" speed="27.78" length="48.63" shape="0.18,-1.59 48.51,3.82"/>
    </edge>

    <junction id="End" type="dead_end" x="300.00" y="12.00" incLanes="MainLane_0 MainLane_1" intLanes="" shape="300.00,5.60 300.00,12.00"/>
    <junction id="AccelEnd" type="priority" x="250.00" y="12.00" incLanes="MergeZone_0 MergeZone_1 MergeZone_2" intLanes=":AccelEnd_0_0 :AccelEnd_0_1" shape="254.00,12.00 254.00,5.60 250.97,4.77 249.03,3.23 247.79,2.64 246.00,2.40 246.00,12.00">
        <request index="0" response="00" foes="00" cont="0"/>
        <request index="1" response="00" foes="00" cont="0"/>
    </junction>
    <junction id="MainStart" type="dead_end" x="0.00" y="12.00" incLanes="" intLanes="" shape="0.00,12.00 0.00,5.60"/>
    <junction id="MergeNode" type="priority" x="50.00" y="12.00" incLanes="OnRamp_0 MainApproach_0 MainApproach_1" intLanes=":MergeNode_0_0 :MergeNode_1_0 :MergeNode_1_1" shape="51.68,12.00 51.68,2.40 50.57,2.39 50.18,2.38 49.79,2.35 49.32,2.30 48.69,2.23 48.33,5.41 48.50,5.60 48.50,12.00">
        <request index="0" response="000" foes="000" cont="0"/>
        <request index="1" response="000" foes="000" cont="0"/>
        <request index="2" response="000" foes="000" cont="0"/>
    </junction>
    <junction id="RampStart" type="dead_end" x="0.00" y="0.00" incLanes="" intLanes="" shape="-0.00,-0.00 0.36,-3.18"/>

    <connection from="MainApproach" to="MergeZone" fromLane="0" toLane="1" via=":MergeNode_1_0" dir="s" state="M"/>
    <connection from="MainApproach" to="MergeZone" fromLane="1" toLane="2" via=":MergeNode_1_1" dir="s" state="M"/>
    <connection from="MergeZone" to="MainLane" fromLane="1" toLane="0" via=":AccelEnd_0_0" dir="s" state="M"/>
    <connection from="MergeZone" to="MainLane" fromLane="2" toLane="1" via=":AccelEnd_0_1" dir="s" state="M"/>
    <connection from="OnRamp" to="MergeZone" fromLane="0" toLane="0" via=":MergeNode_0_0" dir="s" state="M"/>

    <connection from=":AccelEnd_0" to="MainLane" fromLane="0" toLane="0" dir="s" state="M"/>
    <connection from=":AccelEnd_0" to="MainLane" fromLane="1" toLane="1" dir="s" state="M"/>
    <connection from=":MergeNode_0" to="MergeZone" fromLane="0" toLane="0" dir="s" state="M"/>
    <connection from=":MergeNode_1" to="MergeZone" fromLane="0" toLane="1" dir="s" state="M"/>
    <connection from=":MergeNode_1" to="MergeZone" fromLane="1" toLane="2" dir="s" state="M"/>

</net>
