<?xml version="1.0" encoding="UTF-8"?>

<!-- generated on 2024-11-04 11:20:16 by Eclipse SUMO netedit Version 1.21.0
-->

<routes xmlns:xsi="http://www.w3.org/2001/XMLSchema-instance" xsi:noNamespaceSchemaLocation="http://sumo.dlr.de/xsd/routes_file.xsd">
    <!-- Routes -->
    <route id="r_0" edges="E0 E1 E42"/>
    <route id="r_1" edges="E0 E2 E4 E42"/>
    <!-- Vehicles, persons and containers (sorted by depart) -->
    <trip id="t_0" depart="0.00" from="E0" to="E42" via="E1"/>
    <trip id="t_1" depart="0.00" from="E0" to="E3" via="E2"/>
    <trip id="t_2" depart="0.00" from="E0" to="E42" via="E2 E4"/>
</routes>
