<?xml version="1.0" encoding="UTF-8"?>

<!-- generated on 2024-11-04 11:20:16 by Eclipse SUMO netedit Version 1.21.0
-->

<routes xmlns:xsi="http://www.w3.org/2001/XMLSchema-instance" xsi:noNamespaceSchemaLocation="http://sumo.dlr.de/xsd/routes_file.xsd">
    <vType id="CAV_0" accel="3.0" decel="5.0" maxSpeed="27" length="5" speedFactor="1.0" speedDev="0.0"/>
    <vType id="CAV_1" accel="3.0" decel="5.0" maxSpeed="27" length="5" speedFactor="1.0" speedDev="0.0"/>

    <!-- Routes -->
    <route id="r_pass" edges="MainLane0 MainLane1 MainLane2"/>
    <route id="r_exit" edges="MainLane0 MainLane1 Exit0 Exit1"/>
</routes>
