<?xml version="1.0" encoding="UTF-8"?>

<!-- generated on 2024-12-19 23:39:05 by Eclipse SUMO netedit Version 1.21.0
<neteditConfiguration xmlns:xsi="http://www.w3.org/2001/XMLSchema-instance" xsi:noNamespaceSchemaLocation="http://sumo.dlr.de/xsd/neteditConfiguration.xsd">

    <input>
        <sumo-net-file value="high-way.net.xml"/>
    </input>

    <output>
        <output-file value="high-way.net.xml"/>
    </output>

    <processing>
        <geometry.min-radius.fix.railways value="false"/>
        <geometry.max-grade.fix value="false"/>
        <offset.disable-normalization value="true"/>
        <lefthand value="0"/>
    </processing>

    <junctions>
        <no-turnarounds value="true"/>
        <junctions.corner-detail value="5"/>
        <junctions.limit-turn-speed value="5.50"/>
        <rectangular-lane-cut value="0"/>
    </junctions>

    <pedestrian>
        <walkingareas value="0"/>
    </pedestrian>

</neteditConfiguration>
-->

<net version="1.20" junctionCornerDetail="5" limitTurnSpeed="5.50" xmlns:xsi="http://www.w3.org/2001/XMLSchema-instance" xsi:noNamespaceSchemaLocation="http://sumo.dlr.de/xsd/net_file.xsd">

    <location netOffset="250.00,0.00" convBoundary="-1500.00,0.00,150.00,7.56" origBoundary="-250.00,0.00,251.00,50.00" projParameter="!"/>

    <edge id=":Branch_0" function="internal">
        <lane id=":Branch_0_0" index="0" speed="27.77" length="38.16" shape="-4.00,-8.00 34.16,-8.00"/>
        <lane id=":Branch_0_1" index="1" speed="27.77" length="38.16" shape="-4.00,-4.80 34.16,-4.80"/>
        <lane id=":Branch_0_2" index="2" speed="27.77" length="38.16" shape="-4.00,-1.60 34.16,-1.60"/>
    </edge>
    <edge id=":Branch_3" function="internal">
        <lane id=":Branch_3_0" index="0" speed="17.36" length="38.13" shape="-4.00,-1.60 7.56,-1.11 18.73,0.01 28.02,1.19 33.94,1.91"/>
    </edge>

    <edge id="ExitLane" from="Branch" to="Exit" priority="-1" shape="0.00,0.00 2.90,0.38 4.38,0.56 5.87,0.75 7.37,0.93 8.89,1.11 10.43,1.28 11.99,1.46 13.56,1.63 15.14,1.80 16.75,1.96 18.37,2.13 20.00,2.29 21.65,2.45 23.32,2.61 25.00,2.76 26.70,2.91 28.41,3.06 30.14,3.21 31.89,3.35 33.65,3.49 35.43,3.63 37.23,3.77 39.04,3.91 40.86,4.04 42.71,4.17 44.57,4.30 46.44,4.42 48.33,4.55 50.24,4.67 52.16,4.78 54.10,4.90 56.06,5.01 58.03,5.12 60.01,5.23 62.02,5.34 64.03,5.44 66.07,5.54 68.12,5.64 70.19,5.74 72.27,5.83 74.37,5.92 76.49,6.01 78.62,6.10 80.76,6.18 82.93,6.26 85.11,6.34 87.30,6.42 89.51,6.49 91.74,6.56 93.98,6.63 96.24,6.70 98.52,6.76 100.81,6.83 103.12,6.89 105.44,6.94 107.78,7.00 110.13,7.05 112.51,7.10 114.89,7.15 117.30,7.19 119.72,7.24 122.15,7.28 124.60,7.31 127.07,7.35 129.55,7.38 132.05,7.41 134.57,7.44 137.10,7.47 139.65,7.49 142.21,7.51 144.79,7.53 147.39,7.55 150.00,7.56">
        <lane id="ExitLane_0" index="0" speed="6.94" length="116.16" shape="33.94,1.91 35.55,2.03 37.35,2.17 39.16,2.31 40.97,2.44 42.82,2.57 44.68,2.70 46.55,2.82 48.44,2.95 50.34,3.07 52.26,3.18 54.19,3.30 56.15,3.41 58.12,3.52 60.10,3.63 62.10,3.74 64.11,3.84 66.15,3.94 68.20,4.04 70.26,4.14 72.34,4.23 74.44,4.32 76.56,4.41 78.68,4.50 80.82,4.58 82.99,4.66 85.17,4.74 87.35,4.82 89.56,4.89 91.79,4.96 94.03,5.03 96.29,5.10 98.57,5.16 100.86,5.23 103.16,5.29 105.48,5.34 107.82,5.40 110.16,5.45 112.54,5.50 114.92,5.55 117.33,5.59 119.75,5.64 122.17,5.68 124.62,5.71 127.09,5.75 129.57,5.78 132.07,5.81 134.59,5.84 137.12,5.87 139.66,5.89 142.22,5.91 144.80,5.93 147.40,5.95 150.01,5.96"/>
    </edge>
    <edge id="MainLane1" from="Start" to="Branch" priority="-1">
        <lane id="MainLane1_0" index="0" speed="27.77" length="1496.00" shape="-1500.00,-8.00 -4.00,-8.00"/>
        <lane id="MainLane1_1" index="1" speed="27.77" length="1496.00" shape="-1500.00,-4.80 -4.00,-4.80"/>
        <lane id="MainLane1_2" index="2" speed="27.77" length="1496.00" shape="-1500.00,-1.60 -4.00,-1.60"/>
    </edge>
    <edge id="MainLane2" from="Branch" to="End" priority="-1">
        <lane id="MainLane2_0" index="0" speed="27.77" length="115.84" shape="34.16,-8.00 150.00,-8.00"/>
        <lane id="MainLane2_1" index="1" speed="27.77" length="115.84" shape="34.16,-4.80 150.00,-4.80"/>
        <lane id="MainLane2_2" index="2" speed="27.77" length="115.84" shape="34.16,-1.60 150.00,-1.60"/>
    </edge>

    <junction id="Branch" type="priority" x="0.00" y="0.00" incLanes="MainLane1_0 MainLane1_1 MainLane1_2" intLanes=":Branch_0_0 :Branch_0_1 :Branch_0_2 :Branch_3_0" shape="33.73,3.50 34.15,0.32 34.16,0.00 34.16,-9.60 -4.00,-9.60 -4.00,0.00 4.04,0.16 9.98,0.58 14.85,1.19 19.71,1.93 25.63,2.72">
        <request index="0" response="0000" foes="0000" cont="0"/>
        <request index="1" response="0000" foes="0000" cont="0"/>
        <request index="2" response="0000" foes="0000" cont="0"/>
        <request index="3" response="0000" foes="0000" cont="0"/>
    </junction>
    <junction id="End" type="dead_end" x="150.00" y="0.00" incLanes="MainLane2_0 MainLane2_1 MainLane2_2" intLanes="" shape="150.00,-9.60 150.00,0.00"/>
    <junction id="Exit" type="dead_end" x="150.00" y="7.56" incLanes="ExitLane_0" intLanes="" shape="150.01,4.36 150.00,7.56"/>
    <junction id="Start" type="dead_end" x="-1500.00" y="0.00" incLanes="" intLanes="" shape="-1500.00,0.00 -1500.00,-9.60"/>

    <connection from="MainLane1" to="MainLane2" fromLane="0" toLane="0" via=":Branch_0_0" dir="s" state="M"/>
    <connection from="MainLane1" to="MainLane2" fromLane="1" toLane="1" via=":Branch_0_1" dir="s" state="M"/>
    <connection from="MainLane1" to="MainLane2" fromLane="2" toLane="2" via=":Branch_0_2" dir="s" state="M"/>
    <connection from="MainLane1" to="ExitLane" fromLane="2" toLane="0" via=":Branch_3_0" dir="L" state="M"/>

    <connection from=":Branch_0" to="MainLane2" fromLane="0" toLane="0" dir="s" state="M"/>
    <connection from=":Branch_0" to="MainLane2" fromLane="1" toLane="1" dir="s" state="M"/>
    <connection from=":Branch_0" to="MainLane2" fromLane="2" toLane="2" dir="s" state="M"/>
    <connection from=":Branch_3" to="ExitLane" fromLane="0" toLane="0" dir="L" state="M"/>

</net>
