<?xml version="1.0" encoding="UTF-8"?>

<!-- generated on 2025-01-14 14:18:52 by Eclipse SUMO netedit Version 1.21.0
<neteditConfiguration xmlns:xsi="http://www.w3.org/2001/XMLSchema-instance" xsi:noNamespaceSchemaLocation="http://sumo.dlr.de/xsd/neteditConfiguration.xsd">

    <input>
        <sumo-net-file value="high-way.net.xml"/>
    </input>

    <output>
        <output-file value="high-way.net.xml"/>
    </output>

    <processing>
        <geometry.min-radius.fix.railways value="false"/>
        <geometry.max-grade.fix value="false"/>
        <offset.disable-normalization value="true"/>
        <lefthand value="0"/>
    </processing>

    <junctions>
        <no-turnarounds value="true"/>
        <junctions.corner-detail value="5"/>
        <junctions.limit-turn-speed value="5.50"/>
        <rectangular-lane-cut value="0"/>
    </junctions>

    <pedestrian>
        <walkingareas value="0"/>
    </pedestrian>

</neteditConfiguration>
-->

<net version="1.20" junctionCornerDetail="5" limitTurnSpeed="5.50" xmlns:xsi="http://www.w3.org/2001/XMLSchema-instance" xsi:noNamespaceSchemaLocation="http://sumo.dlr.de/xsd/net_file.xsd">

    <location netOffset="250.00,0.00" convBoundary="-1500.00,0.00,30.00,7.56" origBoundary="-250.00,0.00,251.00,50.00" projParameter="!"/>

    <edge id=":Branch_0" function="internal">
        <lane id=":Branch_0_0" index="0" speed="27.77" length="15.13" shape="-4.00,-8.00 11.13,-8.00"/>
        <lane id=":Branch_0_1" index="1" speed="27.77" length="15.13" shape="-4.00,-4.80 11.13,-4.80"/>
        <lane id=":Branch_0_2" index="2" speed="27.77" length="15.13" shape="-4.00,-1.60 11.13,-1.60"/>
    </edge>
    <edge id=":Branch_3" function="internal">
        <lane id=":Branch_3_0" index="0" speed="16.66" length="14.95" shape="-4.00,-1.60 0.66,-1.13 4.05,0.03 6.94,1.49 10.11,2.85"/>
    </edge>

    <edge id="ExitLane" from="Branch" to="Exit" priority="-1" shape="0.00,0.00 3.54,1.89 5.36,2.73 7.22,3.50 9.12,4.21 11.04,4.85 13.01,5.42 15.01,5.92 17.04,6.36 19.12,6.73 21.22,7.03 23.36,7.26 25.54,7.43 27.75,7.53 30.00,7.56">
        <lane id="ExitLane_0" index="0" speed="5.56" length="20.25" shape="10.11,2.85 11.52,3.32 13.43,3.88 15.37,4.36 17.35,4.79 19.37,5.15 21.42,5.44 23.51,5.67 25.64,5.83 27.80,5.93 30.02,5.96"/>
    </edge>
    <edge id="MainLane1" from="Start" to="Branch" priority="-1">
        <lane id="MainLane1_0" index="0" speed="27.77" length="1496.00" shape="-1500.00,-8.00 -4.00,-8.00"/>
        <lane id="MainLane1_1" index="1" speed="27.77" length="1496.00" shape="-1500.00,-4.80 -4.00,-4.80"/>
        <lane id="MainLane1_2" index="2" speed="27.77" length="1496.00" shape="-1500.00,-1.60 -4.00,-1.60"/>
    </edge>
    <edge id="MainLane2" from="Branch" to="End" priority="-1">
        <lane id="MainLane2_0" index="0" speed="27.77" length="18.87" shape="11.13,-8.00 30.00,-8.00"/>
        <lane id="MainLane2_1" index="1" speed="27.77" length="18.87" shape="11.13,-4.80 30.00,-4.80"/>
        <lane id="MainLane2_2" index="2" speed="27.77" length="18.87" shape="11.13,-1.60 30.00,-1.60"/>
    </edge>

    <junction id="Branch" type="priority" x="0.00" y="0.00" incLanes="MainLane1_0 MainLane1_1 MainLane1_2" intLanes=":Branch_0_0 :Branch_0_1 :Branch_0_2 :Branch_3_0" shape="9.34,4.28 10.87,1.42 11.13,0.00 11.13,-9.60 -4.00,-9.60 -4.00,0.00 -1.04,0.16 1.10,0.62 2.81,1.31 4.49,2.19 6.53,3.20">
        <request index="0" response="0000" foes="0000" cont="0"/>
        <request index="1" response="0000" foes="0000" cont="0"/>
        <request index="2" response="0000" foes="0000" cont="0"/>
        <request index="3" response="0000" foes="0000" cont="0"/>
    </junction>
    <junction id="End" type="dead_end" x="30.00" y="0.00" incLanes="MainLane2_0 MainLane2_1 MainLane2_2" intLanes="" shape="30.00,-9.60 30.00,0.00"/>
    <junction id="Exit" type="dead_end" x="30.00" y="7.56" incLanes="ExitLane_0" intLanes="" shape="30.04,4.36 30.00,7.56"/>
    <junction id="Start" type="dead_end" x="-1500.00" y="0.00" incLanes="" intLanes="" shape="-1500.00,0.00 -1500.00,-9.60"/>

    <connection from="MainLane1" to="MainLane2" fromLane="0" toLane="0" via=":Branch_0_0" dir="s" state="M"/>
    <connection from="MainLane1" to="MainLane2" fromLane="1" toLane="1" via=":Branch_0_1" dir="s" state="M"/>
    <connection from="MainLane1" to="MainLane2" fromLane="2" toLane="2" via=":Branch_0_2" dir="s" state="M"/>
    <connection from="MainLane1" to="ExitLane" fromLane="2" toLane="0" via=":Branch_3_0" dir="L" state="M"/>

    <connection from=":Branch_0" to="MainLane2" fromLane="0" toLane="0" dir="s" state="M"/>
    <connection from=":Branch_0" to="MainLane2" fromLane="1" toLane="1" dir="s" state="M"/>
    <connection from=":Branch_0" to="MainLane2" fromLane="2" toLane="2" dir="s" state="M"/>
    <connection from=":Branch_3" to="ExitLane" fromLane="0" toLane="0" dir="L" state="M"/>

</net>
