<?xml version="1.0" encoding="UTF-8"?>

<!-- generated on 2024-11-04 11:20:16 by Eclipse SUMO netedit Version 1.21.0
-->

<routes xmlns:xsi="http://www.w3.org/2001/XMLSchema-instance" xsi:noNamespaceSchemaLocation="http://sumo.dlr.de/xsd/routes_file.xsd">
    <vType id="CAV_0" accel="3.0" decel="5.0" maxSpeed="20.0" length="5"/>
    <vType id="CAV_1" accel="3.0" decel="5.0" maxSpeed="20.0" length="5"/>

    <!-- Routes -->
    <route id="r_0" edges="MainLane0 MainLane1 MainLane2"/>
    <route id="r_1" edges="MainLane0 MainLane1 Exit0 Exit1 Exit2"/>
</routes>
