<?xml version="1.0" encoding="UTF-8"?>

<!-- generated on 2026-06-14T17:43:33.145707+09:00 by Eclipse SUMO netconvert 1.27.0
<netconvertConfiguration xmlns:xsi="http://www.w3.org/2001/XMLSchema-instance" xsi:noNamespaceSchemaLocation="http://sumo.dlr.de/xsd/netconvertConfiguration.xsd">

    <input>
        <node-files value="weave2.nod.xml"/>
        <edge-files value="weave2.edg.xml"/>
        <connection-files value="weave2.con.xml"/>
    </input>

    <output>
        <output-file value="weave2.net.xml"/>
    </output>

</netconvertConfiguration>
-->

<net version="1.20" junctionCornerDetail="5" limitTurnSpeed="5.50" xmlns:xsi="http://www.w3.org/2001/XMLSchema-instance" xsi:noNamespaceSchemaLocation="http://sumo.dlr.de/xsd/net_file.xsd">

    <location netOffset="0.00,0.00" convBoundary="0.00,0.00,2500.00,25.00" origBoundary="0.00,0.00,2500.00,25.00" projParameter="!"/>

    <edge id=":WeaveEnd_0" function="internal">
        <lane id=":WeaveEnd_0_0" index="0" speed="27.78" length="22.46" shape="2298.50,-8.00 2320.96,-8.00"/>
        <lane id=":WeaveEnd_0_1" index="1" speed="27.78" length="22.46" shape="2298.50,-4.80 2320.96,-4.80"/>
        <lane id=":WeaveEnd_0_2" index="2" speed="27.78" length="22.46" shape="2298.50,-1.60 2320.96,-1.60"/>
    </edge>
    <edge id=":WeaveEnd_3" function="internal">
        <lane id=":WeaveEnd_3_0" index="0" speed="16.67" length="22.51" shape="2298.50,-1.60 2306.01,-1.18 2311.95,-0.20 2316.71,0.94 2320.68,1.82"/>
    </edge>

    <edge id="ExitLane" from="WeaveEnd" to="Exit" priority="-1">
        <lane id="ExitLane_0" index="0" speed="5.56" length="131.37" shape="2320.68,1.82 2450.26,23.42"/>
    </edge>
    <edge id="MainEnd" from="WeaveEnd" to="End" priority="-1">
        <lane id="MainEnd_0" index="0" speed="27.78" length="179.04" shape="2320.96,-8.00 2500.00,-8.00"/>
        <lane id="MainEnd_1" index="1" speed="27.78" length="179.04" shape="2320.96,-4.80 2500.00,-4.80"/>
        <lane id="MainEnd_2" index="2" speed="27.78" length="179.04" shape="2320.96,-1.60 2500.00,-1.60"/>
    </edge>
    <edge id="WeaveZone" from="Start" to="WeaveEnd" priority="-1">
        <lane id="WeaveZone_0" index="0" speed="27.78" length="2298.50" shape="0.00,-11.20 2298.50,-11.20"/>
        <lane id="WeaveZone_1" index="1" speed="27.78" length="2298.50" shape="0.00,-8.00 2298.50,-8.00"/>
        <lane id="WeaveZone_2" index="2" speed="27.78" length="2298.50" shape="0.00,-4.80 2298.50,-4.80"/>
        <lane id="WeaveZone_3" index="3" speed="27.78" length="2298.50" shape="0.00,-1.60 2298.50,-1.60"/>
    </edge>

    <junction id="End" type="dead_end" x="2500.00" y="0.00" incLanes="MainEnd_0 MainEnd_1 MainEnd_2" intLanes="" shape="2500.00,-9.60 2500.00,0.00"/>
    <junction id="Exit" type="dead_end" x="2450.00" y="25.00" incLanes="ExitLane_0" intLanes="" shape="2450.53,21.84 2450.00,25.00"/>
    <junction id="Start" type="dead_end" x="0.00" y="0.00" incLanes="" intLanes="" shape="0.00,0.00 0.00,-12.80"/>
    <junction id="WeaveEnd" type="priority" x="2300.00" y="0.00" incLanes="WeaveZone_0 WeaveZone_1 WeaveZone_2 WeaveZone_3" intLanes=":WeaveEnd_0_0 :WeaveEnd_0_1 :WeaveEnd_0_2 :WeaveEnd_3_0" shape="2320.42,3.40 2320.94,0.25 2320.96,0.00 2320.96,-9.60 2316.15,-9.84 2312.62,-10.43 2306.85,-11.97 2303.32,-12.56 2298.50,-12.80 2298.50,0.00 2303.21,0.13 2306.68,0.48 2309.52,1.02 2312.34,1.71 2315.77,2.52">
        <request index="0" response="0000" foes="0000" cont="0"/>
        <request index="1" response="0000" foes="0000" cont="0"/>
        <request index="2" response="0000" foes="0000" cont="0"/>
        <request index="3" response="0000" foes="0000" cont="0"/>
    </junction>

    <connection from="WeaveZone" to="MainEnd" fromLane="1" toLane="0" via=":WeaveEnd_0_0" dir="s" state="M"/>
    <connection from="WeaveZone" to="MainEnd" fromLane="2" toLane="1" via=":WeaveEnd_0_1" dir="s" state="M"/>
    <connection from="WeaveZone" to="MainEnd" fromLane="3" toLane="2" via=":WeaveEnd_0_2" dir="s" state="M"/>
    <connection from="WeaveZone" to="ExitLane" fromLane="3" toLane="0" via=":WeaveEnd_3_0" dir="L" state="M"/>

    <connection from=":WeaveEnd_0" to="MainEnd" fromLane="0" toLane="0" dir="s" state="M"/>
    <connection from=":WeaveEnd_0" to="MainEnd" fromLane="1" toLane="1" dir="s" state="M"/>
    <connection from=":WeaveEnd_0" to="MainEnd" fromLane="2" toLane="2" dir="s" state="M"/>
    <connection from=":WeaveEnd_3" to="ExitLane" fromLane="0" toLane="0" dir="L" state="M"/>

</net>
