<?xml version="1.0" encoding="UTF-8"?>

<!-- generated on 2026-06-16T13:00:11.512815+09:00 by Eclipse SUMO netconvert 1.27.0
<netconvertConfiguration xmlns:xsi="http://www.w3.org/2001/XMLSchema-instance" xsi:noNamespaceSchemaLocation="http://sumo.dlr.de/xsd/netconvertConfiguration.xsd">

    <input>
        <node-files value="weave2.nod.xml"/>
        <edge-files value="weave2.edg.xml"/>
        <connection-files value="weave2.con.xml"/>
    </input>

    <output>
        <output-file value="weave2.net.xml"/>
    </output>

</netconvertConfiguration>
-->

<net version="1.20" junctionCornerDetail="5" limitTurnSpeed="5.50" xmlns:xsi="http://www.w3.org/2001/XMLSchema-instance" xsi:noNamespaceSchemaLocation="http://sumo.dlr.de/xsd/net_file.xsd">

    <location netOffset="100.00,20.00" convBoundary="0.00,0.00,564.00,29.80" origBoundary="-100.00,-20.00,464.00,9.80" projParameter="!"/>

    <edge id=":WeaveEnd_0" function="internal">
        <lane id=":WeaveEnd_0_0" index="0" speed="27.78" length="8.18" shape="495.91,18.40 504.09,18.40"/>
        <lane id=":WeaveEnd_0_1" index="1" speed="27.78" length="8.18" shape="495.91,21.60 504.09,21.60"/>
    </edge>
    <edge id=":WeaveEnd_2" function="internal">
        <lane id=":WeaveEnd_2_0" index="0" speed="27.78" length="8.20" shape="495.91,24.80 498.35,24.74 500.03,24.67 501.69,24.82 504.04,25.37"/>
    </edge>
    <edge id=":WeaveStart_0" function="internal">
        <lane id=":WeaveStart_0_0" index="0" speed="27.78" length="8.00" shape="96.00,18.40 104.00,18.40"/>
        <lane id=":WeaveStart_0_1" index="1" speed="27.78" length="8.00" shape="96.00,21.60 104.00,21.60"/>
    </edge>
    <edge id=":WeaveStart_2" function="internal">
        <lane id=":WeaveStart_2_0" index="0" speed="27.78" length="8.00" shape="96.00,15.20 104.00,15.20"/>
    </edge>

    <edge id="ExitRamp" from="WeaveEnd" to="ExitEnd" priority="1" spreadType="center" shape="500.00,24.80 503.33,25.17 506.67,26.10 510.00,27.30 513.33,28.50 516.67,29.43 520.00,29.80 558.00,29.80">
        <lane id="ExitRamp_0" index="0" speed="27.78" length="54.63" shape="504.04,25.37 506.67,26.10 510.00,27.30 513.33,28.50 516.67,29.43 520.00,29.80 558.00,29.80"/>
    </edge>
    <edge id="MainApproach" from="MainStart" to="WeaveStart" priority="10" spreadType="center">
        <lane id="MainApproach_0" index="0" speed="27.78" length="96.00" shape="0.00,18.40 96.00,18.40"/>
        <lane id="MainApproach_1" index="1" speed="27.78" length="96.00" shape="0.00,21.60 96.00,21.60"/>
    </edge>
    <edge id="MainLane" from="WeaveEnd" to="End" priority="10" spreadType="center">
        <lane id="MainLane_0" index="0" speed="27.78" length="59.91" shape="504.09,18.40 564.00,18.40"/>
        <lane id="MainLane_1" index="1" speed="27.78" length="59.91" shape="504.09,21.60 564.00,21.60"/>
    </edge>
    <edge id="OnRamp" from="OnRampStart" to="WeaveStart" priority="1" spreadType="center" shape="0.00,0.00 12.50,1.13 25.00,3.94 37.50,7.60 50.00,11.26 62.50,14.07 75.00,15.20 100.00,15.20">
        <lane id="OnRamp_0" index="0" speed="27.78" length="97.78" shape="-0.00,-0.00 12.50,1.13 25.00,3.94 37.50,7.60 50.00,11.26 62.50,14.07 75.00,15.20 96.00,15.20"/>
    </edge>
    <edge id="WeaveZone" from="WeaveStart" to="WeaveEnd" priority="10" spreadType="center">
        <lane id="WeaveZone_0" index="0" speed="27.78" length="391.91" shape="104.00,15.20 495.91,15.20"/>
        <lane id="WeaveZone_1" index="1" speed="27.78" length="391.91" shape="104.00,18.40 495.91,18.40"/>
        <lane id="WeaveZone_2" index="2" speed="27.78" length="391.91" shape="104.00,21.60 495.91,21.60"/>
        <lane id="WeaveZone_3" index="3" speed="27.78" length="391.91" shape="104.00,24.80 495.91,24.80"/>
    </edge>

    <junction id="End" type="dead_end" x="564.00" y="20.00" incLanes="MainLane_0 MainLane_1" intLanes="" shape="564.00,16.80 564.00,23.20"/>
    <junction id="ExitEnd" type="dead_end" x="558.00" y="29.80" incLanes="ExitRamp_0" intLanes="" shape="558.00,28.20 558.00,31.40"/>
    <junction id="MainStart" type="dead_end" x="0.00" y="20.00" incLanes="" intLanes="" shape="0.00,23.20 0.00,16.80"/>
    <junction id="OnRampStart" type="dead_end" x="0.00" y="0.00" incLanes="" intLanes="" shape="-0.14,1.59 0.14,-1.59"/>
    <junction id="WeaveEnd" type="priority" x="500.00" y="20.00" incLanes="WeaveZone_0 WeaveZone_1 WeaveZone_2 WeaveZone_3" intLanes=":WeaveEnd_0_0 :WeaveEnd_0_1 :WeaveEnd_2_0" shape="503.86,26.98 504.22,23.76 504.09,23.20 504.09,16.80 500.99,15.97 499.01,14.43 497.74,13.84 495.91,13.60 495.91,26.40 498.89,26.31 499.94,26.29 500.98,26.35 502.22,26.56">
        <request index="0" response="000" foes="000" cont="0"/>
        <request index="1" response="000" foes="000" cont="0"/>
        <request index="2" response="000" foes="000" cont="0"/>
    </junction>
    <junction id="WeaveStart" type="priority" x="100.00" y="20.00" incLanes="MainApproach_0 MainApproach_1 OnRamp_0" intLanes=":WeaveStart_0_0 :WeaveStart_0_1 :WeaveStart_2_0" shape="104.00,26.40 104.00,13.60 96.00,13.60 96.00,23.20 99.03,24.03 100.97,25.57 102.21,26.16">
        <request index="0" response="000" foes="000" cont="0"/>
        <request index="1" response="000" foes="000" cont="0"/>
        <request index="2" response="000" foes="000" cont="0"/>
    </junction>

    <connection from="MainApproach" to="WeaveZone" fromLane="0" toLane="1" via=":WeaveStart_0_0" dir="s" state="M"/>
    <connection from="MainApproach" to="WeaveZone" fromLane="1" toLane="2" via=":WeaveStart_0_1" dir="s" state="M"/>
    <connection from="OnRamp" to="WeaveZone" fromLane="0" toLane="0" via=":WeaveStart_2_0" dir="s" state="M"/>
    <connection from="WeaveZone" to="MainLane" fromLane="1" toLane="0" via=":WeaveEnd_0_0" dir="s" state="M"/>
    <connection from="WeaveZone" to="MainLane" fromLane="2" toLane="1" via=":WeaveEnd_0_1" dir="s" state="M"/>
    <connection from="WeaveZone" to="ExitRamp" fromLane="3" toLane="0" via=":WeaveEnd_2_0" dir="L" state="M"/>

    <connection from=":WeaveEnd_0" to="MainLane" fromLane="0" toLane="0" dir="s" state="M"/>
    <connection from=":WeaveEnd_0" to="MainLane" fromLane="1" toLane="1" dir="s" state="M"/>
    <connection from=":WeaveEnd_2" to="ExitRamp" fromLane="0" toLane="0" dir="L" state="M"/>
    <connection from=":WeaveStart_0" to="WeaveZone" fromLane="0" toLane="1" dir="s" state="M"/>
    <connection from=":WeaveStart_0" to="WeaveZone" fromLane="1" toLane="2" dir="s" state="M"/>
    <connection from=":WeaveStart_2" to="WeaveZone" fromLane="0" toLane="0" dir="s" state="M"/>

</net>
