<?xml version="1.0" encoding="UTF-8"?>

<!-- generated on 2026-06-15T19:58:04.803600+09:00 by Eclipse SUMO netconvert 1.27.0
<netconvertConfiguration xmlns:xsi="http://www.w3.org/2001/XMLSchema-instance" xsi:noNamespaceSchemaLocation="http://sumo.dlr.de/xsd/netconvertConfiguration.xsd">

    <input>
        <node-files value="weave2.nod.xml"/>
        <edge-files value="weave2.edg.xml"/>
        <connection-files value="weave2.con.xml"/>
    </input>

    <output>
        <output-file value="weave2.net.xml"/>
    </output>

</netconvertConfiguration>
-->

<net version="1.20" junctionCornerDetail="5" limitTurnSpeed="5.50" xmlns:xsi="http://www.w3.org/2001/XMLSchema-instance" xsi:noNamespaceSchemaLocation="http://sumo.dlr.de/xsd/net_file.xsd">

    <location netOffset="200.00,12.00" convBoundary="0.00,0.00,750.00,52.00" origBoundary="-200.00,-12.00,550.00,40.00" projParameter="!"/>

    <edge id=":WeaveEnd_0" function="internal">
        <lane id=":WeaveEnd_0_0" index="0" speed="27.78" length="20.75" shape="596.00,4.00 602.14,4.50 606.34,5.60 610.46,6.70 616.42,7.20"/>
        <lane id=":WeaveEnd_0_1" index="1" speed="27.78" length="20.75" shape="596.00,7.20 602.14,7.70 606.34,8.80 610.46,9.90 616.42,10.40"/>
    </edge>
    <edge id=":WeaveEnd_2" function="internal">
        <lane id=":WeaveEnd_2_0" index="0" speed="27.78" length="20.42" shape="596.00,10.40 602.71,10.87 607.93,12.01 612.16,13.38 615.87,14.58"/>
    </edge>
    <edge id=":WeaveStart_0" function="internal">
        <lane id=":WeaveStart_0_0" index="0" speed="27.78" length="13.24" shape="195.96,10.15 198.45,8.82 199.52,5.59 200.81,2.30 203.96,0.80"/>
    </edge>
    <edge id=":WeaveStart_1" function="internal">
        <lane id=":WeaveStart_1_0" index="0" speed="27.78" length="8.80" shape="195.97,7.20 198.42,6.70 199.96,5.60 201.50,4.50 203.96,4.00"/>
        <lane id=":WeaveStart_1_1" index="1" speed="27.78" length="8.80" shape="195.96,10.40 198.42,9.90 199.96,8.80 201.49,7.70 203.96,7.20"/>
    </edge>

    <edge id="ExitRamp" from="WeaveEnd" to="ExitEnd" priority="1">
        <lane id="ExitRamp_0" index="0" speed="27.78" length="139.24" shape="615.87,14.58 750.41,50.45"/>
    </edge>
    <edge id="MainApproach" from="MainStart" to="WeaveStart" priority="10">
        <lane id="MainApproach_0" index="0" speed="27.78" length="195.96" shape="0.00,7.20 195.97,7.20"/>
        <lane id="MainApproach_1" index="1" speed="27.78" length="195.96" shape="0.00,10.40 195.96,10.40"/>
    </edge>
    <edge id="MainLane" from="WeaveEnd" to="End" priority="10">
        <lane id="MainLane_0" index="0" speed="27.78" length="83.58" shape="616.42,7.20 700.00,7.20"/>
        <lane id="MainLane_1" index="1" speed="27.78" length="83.58" shape="616.42,10.40 700.00,10.40"/>
    </edge>
    <edge id="OnRamp" from="OnRampStart" to="WeaveStart" priority="1">
        <lane id="OnRamp_0" index="0" speed="27.78" length="196.22" shape="0.10,-1.60 195.96,10.15"/>
    </edge>
    <edge id="WeaveZone" from="WeaveStart" to="WeaveEnd" priority="10">
        <lane id="WeaveZone_0" index="0" speed="27.78" length="392.04" shape="203.96,0.80 596.00,0.80"/>
        <lane id="WeaveZone_1" index="1" speed="27.78" length="392.04" shape="203.96,4.00 596.00,4.00"/>
        <lane id="WeaveZone_2" index="2" speed="27.78" length="392.04" shape="203.96,7.20 596.00,7.20"/>
        <lane id="WeaveZone_3" index="3" speed="27.78" length="392.04" shape="203.96,10.40 596.00,10.40"/>
    </edge>

    <junction id="End" type="dead_end" x="700.00" y="12.00" incLanes="MainLane_0 MainLane_1" intLanes="" shape="700.00,5.60 700.00,12.00"/>
    <junction id="ExitEnd" type="dead_end" x="750.00" y="52.00" incLanes="ExitRamp_0" intLanes="" shape="750.82,48.91 750.00,52.00"/>
    <junction id="MainStart" type="dead_end" x="0.00" y="12.00" incLanes="" intLanes="" shape="0.00,12.00 0.00,5.60"/>
    <junction id="OnRampStart" type="dead_end" x="0.00" y="0.00" incLanes="" intLanes="" shape="0.00,0.00 0.19,-3.19"/>
    <junction id="WeaveEnd" type="priority" x="600.00" y="12.00" incLanes="WeaveZone_0 WeaveZone_1 WeaveZone_2 WeaveZone_3" intLanes=":WeaveEnd_0_0 :WeaveEnd_0_1 :WeaveEnd_2_0" shape="615.46,16.12 616.28,13.03 616.42,12.00 616.42,5.60 611.93,5.13 608.75,3.94 603.67,0.86 600.48,-0.33 596.00,-0.80 596.00,12.00 600.23,12.13 603.33,12.50 605.86,13.10 608.35,13.91 611.37,14.93">
        <request index="0" response="000" foes="000" cont="0"/>
        <request index="1" response="000" foes="000" cont="0"/>
        <request index="2" response="000" foes="000" cont="0"/>
    </junction>
    <junction id="WeaveStart" type="priority" x="200.00" y="12.00" incLanes="OnRamp_0 MainApproach_0 MainApproach_1" intLanes=":WeaveStart_0_0 :WeaveStart_1_0 :WeaveStart_1_1" shape="203.96,12.00 203.96,-0.80 201.65,-0.08 200.51,1.71 199.95,4.01 199.40,6.29 198.26,7.99 195.96,8.55 195.96,12.00">
        <request index="0" response="000" foes="000" cont="0"/>
        <request index="1" response="000" foes="000" cont="0"/>
        <request index="2" response="000" foes="000" cont="0"/>
    </junction>

    <connection from="MainApproach" to="WeaveZone" fromLane="0" toLane="1" via=":WeaveStart_1_0" dir="s" state="M"/>
    <connection from="MainApproach" to="WeaveZone" fromLane="1" toLane="2" via=":WeaveStart_1_1" dir="s" state="M"/>
    <connection from="OnRamp" to="WeaveZone" fromLane="0" toLane="0" via=":WeaveStart_0_0" dir="s" state="M"/>
    <connection from="WeaveZone" to="MainLane" fromLane="1" toLane="0" via=":WeaveEnd_0_0" dir="s" state="M"/>
    <connection from="WeaveZone" to="MainLane" fromLane="2" toLane="1" via=":WeaveEnd_0_1" dir="s" state="M"/>
    <connection from="WeaveZone" to="ExitRamp" fromLane="3" toLane="0" via=":WeaveEnd_2_0" dir="L" state="M"/>

    <connection from=":WeaveEnd_0" to="MainLane" fromLane="0" toLane="0" dir="s" state="M"/>
    <connection from=":WeaveEnd_0" to="MainLane" fromLane="1" toLane="1" dir="s" state="M"/>
    <connection from=":WeaveEnd_2" to="ExitRamp" fromLane="0" toLane="0" dir="L" state="M"/>
    <connection from=":WeaveStart_0" to="WeaveZone" fromLane="0" toLane="0" dir="s" state="M"/>
    <connection from=":WeaveStart_1" to="WeaveZone" fromLane="0" toLane="1" dir="s" state="M"/>
    <connection from=":WeaveStart_1" to="WeaveZone" fromLane="1" toLane="2" dir="s" state="M"/>

</net>
