<?xml version="1.0" encoding="UTF-8"?>

<!-- generated on 2026-06-16T13:17:22.776644+09:00 by Eclipse SUMO netconvert 1.27.0
<netconvertConfiguration xmlns:xsi="http://www.w3.org/2001/XMLSchema-instance" xsi:noNamespaceSchemaLocation="http://sumo.dlr.de/xsd/netconvertConfiguration.xsd">

    <input>
        <node-files value="weave2.nod.xml"/>
        <edge-files value="weave2.edg.xml"/>
        <connection-files value="weave2.con.xml"/>
    </input>

    <output>
        <output-file value="weave2.net.xml"/>
    </output>

</netconvertConfiguration>
-->

<net version="1.20" junctionCornerDetail="5" limitTurnSpeed="5.50" xmlns:xsi="http://www.w3.org/2001/XMLSchema-instance" xsi:noNamespaceSchemaLocation="http://sumo.dlr.de/xsd/net_file.xsd">

    <location netOffset="100.00,20.00" convBoundary="0.00,0.00,564.00,40.00" origBoundary="-100.00,-20.00,464.00,20.00" projParameter="!"/>

    <edge id=":WeaveEnd_0" function="internal">
        <lane id=":WeaveEnd_0_0" index="0" speed="27.78" length="3.18" shape="498.41,15.20 499.35,15.20 500.00,15.18 500.64,15.13 501.58,15.02"/>
    </edge>
    <edge id=":WeaveEnd_1" function="internal">
        <lane id=":WeaveEnd_1_0" index="0" speed="27.78" length="3.18" shape="498.41,18.40 501.59,18.40"/>
        <lane id=":WeaveEnd_1_1" index="1" speed="27.78" length="3.18" shape="498.41,21.60 501.59,21.60"/>
    </edge>
    <edge id=":WeaveEnd_3" function="internal">
        <lane id=":WeaveEnd_3_0" index="0" speed="27.78" length="3.18" shape="498.41,24.80 499.35,24.80 500.00,24.82 500.64,24.87 501.58,24.98"/>
    </edge>
    <edge id=":WeaveStart_0" function="internal">
        <lane id=":WeaveStart_0_0" index="0" speed="27.78" length="3.00" shape="98.50,18.40 101.50,18.40"/>
        <lane id=":WeaveStart_0_1" index="1" speed="27.78" length="3.00" shape="98.50,21.60 101.50,21.60"/>
    </edge>
    <edge id=":WeaveStart_2" function="internal">
        <lane id=":WeaveStart_2_0" index="0" speed="27.78" length="3.00" shape="98.50,24.80 101.50,24.80"/>
    </edge>
    <edge id=":WeaveStart_3" function="internal">
        <lane id=":WeaveStart_3_0" index="0" speed="27.78" length="3.00" shape="98.50,15.20 101.50,15.20"/>
    </edge>

    <edge id="MainApproach" from="MainStart" to="WeaveStart" priority="10" spreadType="center">
        <lane id="MainApproach_0" index="0" speed="27.78" length="98.50" shape="0.00,18.40 98.50,18.40"/>
        <lane id="MainApproach_1" index="1" speed="27.78" length="98.50" shape="0.00,21.60 98.50,21.60"/>
    </edge>
    <edge id="MainLane" from="WeaveEnd" to="End" priority="10" spreadType="center">
        <lane id="MainLane_0" index="0" speed="27.78" length="62.41" shape="501.59,18.40 564.00,18.40"/>
        <lane id="MainLane_1" index="1" speed="27.78" length="62.41" shape="501.59,21.60 564.00,21.60"/>
    </edge>
    <edge id="OffRampBottom" from="WeaveEnd" to="OffRampBottomEnd" priority="1" spreadType="center" shape="500.00,15.20 503.33,14.83 506.67,13.90 510.00,12.70 513.33,11.50 516.67,10.57 520.00,10.20 558.00,10.20">
        <lane id="OffRampBottom_0" index="0" speed="27.78" length="57.13" shape="501.58,15.02 503.33,14.83 506.67,13.90 510.00,12.70 513.33,11.50 516.67,10.57 520.00,10.20 558.00,10.20"/>
    </edge>
    <edge id="OffRampTop" from="WeaveEnd" to="OffRampTopEnd" priority="1" spreadType="center" shape="500.00,24.80 503.33,25.17 506.67,26.10 510.00,27.30 513.33,28.50 516.67,29.43 520.00,29.80 558.00,29.80">
        <lane id="OffRampTop_0" index="0" speed="27.78" length="57.13" shape="501.58,24.98 503.33,25.17 506.67,26.10 510.00,27.30 513.33,28.50 516.67,29.43 520.00,29.80 558.00,29.80"/>
    </edge>
    <edge id="OnRampBottom" from="OnRampBottomStart" to="WeaveStart" priority="1" spreadType="center" shape="0.00,0.00 12.50,1.13 25.00,3.94 37.50,7.60 50.00,11.26 62.50,14.07 75.00,15.20 100.00,15.20">
        <lane id="OnRampBottom_0" index="0" speed="27.78" length="100.28" shape="-0.00,-0.00 12.50,1.13 25.00,3.94 37.50,7.60 50.00,11.26 62.50,14.07 75.00,15.20 98.50,15.20"/>
    </edge>
    <edge id="OnRampTop" from="OnRampTopStart" to="WeaveStart" priority="1" spreadType="center" shape="0.00,40.00 12.50,38.87 25.00,36.06 37.50,32.40 50.00,28.74 62.50,25.93 75.00,24.80 100.00,24.80">
        <lane id="OnRampTop_0" index="0" speed="27.78" length="100.28" shape="0.00,40.00 12.50,38.87 25.00,36.06 37.50,32.40 50.00,28.74 62.50,25.93 75.00,24.80 98.50,24.80"/>
    </edge>
    <edge id="WeaveZone" from="WeaveStart" to="WeaveEnd" priority="10" spreadType="center">
        <lane id="WeaveZone_0" index="0" speed="27.78" length="396.91" shape="101.50,15.20 498.41,15.20"/>
        <lane id="WeaveZone_1" index="1" speed="27.78" length="396.91" shape="101.50,18.40 498.41,18.40"/>
        <lane id="WeaveZone_2" index="2" speed="27.78" length="396.91" shape="101.50,21.60 498.41,21.60"/>
        <lane id="WeaveZone_3" index="3" speed="27.78" length="396.91" shape="101.50,24.80 498.41,24.80"/>
    </edge>

    <junction id="End" type="dead_end" x="564.00" y="20.00" incLanes="MainLane_0 MainLane_1" intLanes="" shape="564.00,16.80 564.00,23.20"/>
    <junction id="MainStart" type="dead_end" x="0.00" y="20.00" incLanes="" intLanes="" shape="0.00,23.20 0.00,16.80"/>
    <junction id="OffRampBottomEnd" type="dead_end" x="558.00" y="10.20" incLanes="OffRampBottom_0" intLanes="" shape="558.00,8.60 558.00,11.80"/>
    <junction id="OffRampTopEnd" type="dead_end" x="558.00" y="29.80" incLanes="OffRampTop_0" intLanes="" shape="558.00,28.20 558.00,31.40"/>
    <junction id="OnRampBottomStart" type="dead_end" x="0.00" y="0.00" incLanes="" intLanes="" shape="-0.14,1.59 0.14,-1.59"/>
    <junction id="OnRampTopStart" type="dead_end" x="0.00" y="40.00" incLanes="" intLanes="" shape="0.14,41.59 -0.14,38.41"/>
    <junction id="WeaveEnd" type="priority" x="500.00" y="20.00" incLanes="WeaveZone_0 WeaveZone_1 WeaveZone_2 WeaveZone_3" intLanes=":WeaveEnd_0_0 :WeaveEnd_1_0 :WeaveEnd_1_1 :WeaveEnd_3_0" shape="501.40,26.57 501.76,23.39 501.59,23.20 501.59,16.80 501.76,16.61 501.40,13.43 500.30,13.55 499.91,13.58 499.52,13.59 499.05,13.60 498.41,13.60 498.41,26.40 499.52,26.41 499.91,26.42 500.30,26.45 500.77,26.50">
        <request index="0" response="0000" foes="0000" cont="0"/>
        <request index="1" response="0000" foes="0000" cont="0"/>
        <request index="2" response="0000" foes="0000" cont="0"/>
        <request index="3" response="0000" foes="0000" cont="0"/>
    </junction>
    <junction id="WeaveStart" type="priority" x="100.00" y="20.00" incLanes="MainApproach_0 MainApproach_1 OnRampTop_0 OnRampBottom_0" intLanes=":WeaveStart_0_0 :WeaveStart_0_1 :WeaveStart_2_0 :WeaveStart_3_0" shape="101.50,26.40 101.50,13.60 98.50,13.60 98.50,26.40">
        <request index="0" response="0000" foes="0000" cont="0"/>
        <request index="1" response="0000" foes="0000" cont="0"/>
        <request index="2" response="0000" foes="0000" cont="0"/>
        <request index="3" response="0000" foes="0000" cont="0"/>
    </junction>

    <connection from="MainApproach" to="WeaveZone" fromLane="0" toLane="1" via=":WeaveStart_0_0" dir="s" state="M"/>
    <connection from="MainApproach" to="WeaveZone" fromLane="1" toLane="2" via=":WeaveStart_0_1" dir="s" state="M"/>
    <connection from="OnRampBottom" to="WeaveZone" fromLane="0" toLane="0" via=":WeaveStart_3_0" dir="s" state="M"/>
    <connection from="OnRampTop" to="WeaveZone" fromLane="0" toLane="3" via=":WeaveStart_2_0" dir="s" state="M"/>
    <connection from="WeaveZone" to="OffRampBottom" fromLane="0" toLane="0" via=":WeaveEnd_0_0" dir="R" state="M"/>
    <connection from="WeaveZone" to="MainLane" fromLane="1" toLane="0" via=":WeaveEnd_1_0" dir="s" state="M"/>
    <connection from="WeaveZone" to="MainLane" fromLane="2" toLane="1" via=":WeaveEnd_1_1" dir="s" state="M"/>
    <connection from="WeaveZone" to="OffRampTop" fromLane="3" toLane="0" via=":WeaveEnd_3_0" dir="L" state="M"/>

    <connection from=":WeaveEnd_0" to="OffRampBottom" fromLane="0" toLane="0" dir="R" state="M"/>
    <connection from=":WeaveEnd_1" to="MainLane" fromLane="0" toLane="0" dir="s" state="M"/>
    <connection from=":WeaveEnd_1" to="MainLane" fromLane="1" toLane="1" dir="s" state="M"/>
    <connection from=":WeaveEnd_3" to="OffRampTop" fromLane="0" toLane="0" dir="L" state="M"/>
    <connection from=":WeaveStart_0" to="WeaveZone" fromLane="0" toLane="1" dir="s" state="M"/>
    <connection from=":WeaveStart_0" to="WeaveZone" fromLane="1" toLane="2" dir="s" state="M"/>
    <connection from=":WeaveStart_2" to="WeaveZone" fromLane="0" toLane="3" dir="s" state="M"/>
    <connection from=":WeaveStart_3" to="WeaveZone" fromLane="0" toLane="0" dir="s" state="M"/>

</net>
