<edges>
    <!-- 本線2車線（spreadType=center で WeaveZone 中央2車線 lane1,2 と整列） -->
    <edge id="MainApproach" from="MainStart" to="WeaveStart" numLanes="2" speed="27.78" priority="10" spreadType="center"/>
    <!-- 織込みゾーン(コア)4車線 1:2:1: lane0=加速/出口(下)・lane1,2=本線・lane3=加速/出口(上) -->
    <edge id="WeaveZone" from="WeaveStart" to="WeaveEnd" numLanes="4" speed="27.78" priority="10" spreadType="center"/>
    <!-- 織込み後の本線2車線(tail) -->
    <edge id="MainLane" from="WeaveEnd" to="End" numLanes="2" speed="27.78" priority="10" spreadType="center"/>
    <!-- 下側オンランプ。smoothstep で降下後 lane0 レベル(-4.8)へ平行進入し WeaveStart で lane0 に連結 -->
    <edge id="OnRampBottom" from="OnRampBottomStart" to="WeaveStart" numLanes="1" speed="27.78" priority="1" spreadType="center"
          shape="-100.00,-20.00 -87.50,-18.87 -75.00,-16.06 -62.50,-12.40 -50.00,-8.74 -37.50,-5.93 -25.00,-4.80 0.00,-4.80"/>
    <!-- 上側オンランプ。smoothstep で上昇後 lane3 レベル(+4.8)へ平行進入し WeaveStart で lane3 に連結（下と上下対称） -->
    <edge id="OnRampTop" from="OnRampTopStart" to="WeaveStart" numLanes="1" speed="27.78" priority="1" spreadType="center"
          shape="-100.00,20.00 -87.50,18.87 -75.00,16.06 -62.50,12.40 -50.00,8.74 -37.50,5.93 -25.00,4.80 0.00,4.80"/>
    <!-- 下側オフランプ。lane0(-4.8)レベルから smoothstep で下へ分流し -9.8(本線と平行,ゴア端1.8m)へ漸近し水平 -->
    <edge id="OffRampBottom" from="WeaveEnd" to="OffRampBottomEnd" numLanes="1" speed="27.78" priority="1" spreadType="center"
          shape="400.00,-4.80 403.33,-5.17 406.67,-6.10 410.00,-7.30 413.33,-8.50 416.67,-9.43 420.00,-9.80 458.00,-9.80"/>
    <!-- 上側オフランプ。lane3(+4.8)レベルから smoothstep で上へ分流し +9.8(本線と平行,ゴア端1.8m)へ漸近し水平（下と上下対称） -->
    <edge id="OffRampTop" from="WeaveEnd" to="OffRampTopEnd" numLanes="1" speed="27.78" priority="1" spreadType="center"
          shape="400.00,4.80 403.33,5.17 406.67,6.10 410.00,7.30 413.33,8.50 416.67,9.43 420.00,9.80 458.00,9.80"/>
</edges>
