<?xml version="1.0" encoding="UTF-8"?>

<!-- generated on 2026-06-14T16:32:59.799281+09:00 by Eclipse SUMO netconvert 1.27.0
<netconvertConfiguration xmlns:xsi="http://www.w3.org/2001/XMLSchema-instance" xsi:noNamespaceSchemaLocation="http://sumo.dlr.de/xsd/netconvertConfiguration.xsd">

    <input>
        <node-files value="merge.nod.xml"/>
        <edge-files value="merge.edg.xml"/>
        <connection-files value="merge.con.xml"/>
    </input>

    <output>
        <output-file value="merge.net.xml"/>
    </output>

</netconvertConfiguration>
-->

<net version="1.20" junctionCornerDetail="5" limitTurnSpeed="5.50" xmlns:xsi="http://www.w3.org/2001/XMLSchema-instance" xsi:noNamespaceSchemaLocation="http://sumo.dlr.de/xsd/net_file.xsd">

    <location netOffset="0.00,0.00" convBoundary="0.00,0.00,2500.00,0.00" origBoundary="0.00,0.00,2500.00,0.00" projParameter="!"/>

    <edge id=":AccelEnd_0" function="internal">
        <lane id=":AccelEnd_0_0" index="0" speed="27.78" length="8.00" shape="196.00,-8.00 204.00,-8.00"/>
        <lane id=":AccelEnd_0_1" index="1" speed="27.78" length="8.00" shape="196.00,-4.80 204.00,-4.80"/>
        <lane id=":AccelEnd_0_2" index="2" speed="27.78" length="8.00" shape="196.00,-1.60 204.00,-1.60"/>
    </edge>

    <edge id="MainLane" from="AccelEnd" to="End" priority="-1">
        <lane id="MainLane_0" index="0" speed="27.78" length="2296.00" shape="204.00,-8.00 2500.00,-8.00"/>
        <lane id="MainLane_1" index="1" speed="27.78" length="2296.00" shape="204.00,-4.80 2500.00,-4.80"/>
        <lane id="MainLane_2" index="2" speed="27.78" length="2296.00" shape="204.00,-1.60 2500.00,-1.60"/>
    </edge>
    <edge id="MergeZone" from="Start" to="AccelEnd" priority="-1">
        <lane id="MergeZone_0" index="0" speed="27.78" length="196.00" shape="0.00,-11.20 196.00,-11.20"/>
        <lane id="MergeZone_1" index="1" speed="27.78" length="196.00" shape="0.00,-8.00 196.00,-8.00"/>
        <lane id="MergeZone_2" index="2" speed="27.78" length="196.00" shape="0.00,-4.80 196.00,-4.80"/>
        <lane id="MergeZone_3" index="3" speed="27.78" length="196.00" shape="0.00,-1.60 196.00,-1.60"/>
    </edge>

    <junction id="AccelEnd" type="priority" x="200.00" y="0.00" incLanes="MergeZone_0 MergeZone_1 MergeZone_2 MergeZone_3" intLanes=":AccelEnd_0_0 :AccelEnd_0_1 :AccelEnd_0_2" shape="204.00,0.00 204.00,-9.60 200.97,-10.43 199.03,-11.97 197.79,-12.56 196.00,-12.80 196.00,0.00">
        <request index="0" response="000" foes="000" cont="0"/>
        <request index="1" response="000" foes="000" cont="0"/>
        <request index="2" response="000" foes="000" cont="0"/>
    </junction>
    <junction id="End" type="dead_end" x="2500.00" y="0.00" incLanes="MainLane_0 MainLane_1 MainLane_2" intLanes="" shape="2500.00,-9.60 2500.00,0.00"/>
    <junction id="Start" type="dead_end" x="0.00" y="0.00" incLanes="" intLanes="" shape="0.00,0.00 0.00,-12.80"/>

    <connection from="MergeZone" to="MainLane" fromLane="1" toLane="0" via=":AccelEnd_0_0" dir="s" state="M"/>
    <connection from="MergeZone" to="MainLane" fromLane="2" toLane="1" via=":AccelEnd_0_1" dir="s" state="M"/>
    <connection from="MergeZone" to="MainLane" fromLane="3" toLane="2" via=":AccelEnd_0_2" dir="s" state="M"/>

    <connection from=":AccelEnd_0" to="MainLane" fromLane="0" toLane="0" dir="s" state="M"/>
    <connection from=":AccelEnd_0" to="MainLane" fromLane="1" toLane="1" dir="s" state="M"/>
    <connection from=":AccelEnd_0" to="MainLane" fromLane="2" toLane="2" dir="s" state="M"/>

</net>
