<?xml version="1.0" encoding="UTF-8"?>

<!-- generated on 2026-06-16T11:57:44.166019+09:00 by Eclipse SUMO netconvert 1.27.0
<netconvertConfiguration xmlns:xsi="http://www.w3.org/2001/XMLSchema-instance" xsi:noNamespaceSchemaLocation="http://sumo.dlr.de/xsd/netconvertConfiguration.xsd">

    <input>
        <node-files value="weave.nod.xml"/>
        <edge-files value="weave.edg.xml"/>
    </input>

    <output>
        <output-file value="weave.net.xml"/>
    </output>

    <ramp_guessing>
        <ramps.guess value="true"/>
        <ramps.ramp-length value="200"/>
    </ramp_guessing>

</netconvertConfiguration>
-->

<net version="1.20" junctionCornerDetail="5" limitTurnSpeed="5.50" xmlns:xsi="http://www.w3.org/2001/XMLSchema-instance" xsi:noNamespaceSchemaLocation="http://sumo.dlr.de/xsd/net_file.xsd">

    <location netOffset="100.00,15.00" convBoundary="0.00,0.00,361.00,15.00" origBoundary="-100.00,-15.00,261.00,0.00" projParameter="!"/>

    <edge id=":WeaveEnd_0" function="internal">
        <lane id=":WeaveEnd_0_0" index="0" speed="27.78" length="1.96" shape="298.90,7.00 299.48,7.00 299.88,6.98 300.28,6.94 300.85,6.85"/>
    </edge>
    <edge id=":WeaveEnd_1" function="internal">
        <lane id=":WeaveEnd_1_0" index="0" speed="27.78" length="2.69" shape="298.90,10.20 301.35,10.20"/>
        <lane id=":WeaveEnd_1_1" index="1" speed="27.78" length="2.69" shape="298.90,13.40 301.83,13.40"/>
    </edge>
    <edge id=":WeaveStart_0" function="internal">
        <lane id=":WeaveStart_0_0" index="0" speed="27.78" length="3.00" shape="98.49,6.97 101.49,7.00"/>
    </edge>
    <edge id=":WeaveStart_1" function="internal">
        <lane id=":WeaveStart_1_0" index="0" speed="27.78" length="3.00" shape="98.49,10.20 101.49,10.20"/>
        <lane id=":WeaveStart_1_1" index="1" speed="27.78" length="3.00" shape="98.49,13.40 101.49,13.40"/>
    </edge>

    <edge id="ExitRamp" from="WeaveEnd" to="ExitEnd" priority="1" shape="300.00,8.60 312.00,6.80 350.00,6.80">
        <lane id="ExitRamp_0" index="0" speed="27.78" length="49.27" shape="300.85,6.85 311.88,5.20 350.00,5.20"/>
    </edge>
    <edge id="MainApproach" from="MainStart" to="WeaveStart" priority="10">
        <lane id="MainApproach_0" index="0" speed="27.78" length="98.49" shape="0.00,10.20 98.49,10.20"/>
        <lane id="MainApproach_1" index="1" speed="27.78" length="98.49" shape="0.00,13.40 98.49,13.40"/>
    </edge>
    <edge id="MainLane" from="WeaveEnd" to="End" priority="10">
        <lane id="MainLane_0" index="0" speed="27.78" length="59.41" shape="301.35,10.20 361.00,10.20"/>
        <lane id="MainLane_1" index="1" speed="27.78" length="59.41" shape="301.83,13.40 361.00,13.40"/>
    </edge>
    <edge id="OnRamp" from="OnRampStart" to="WeaveStart" priority="1" shape="0.00,0.00 10.00,0.54 20.00,1.92 30.00,3.78 40.00,5.76 50.00,7.50 100.00,8.60">
        <lane id="OnRamp_0" index="0" speed="27.78" length="99.04" shape="0.09,-1.60 10.15,-1.05 20.26,0.34 30.30,2.21 40.29,4.19 50.16,5.90 98.49,6.97"/>
    </edge>
    <edge id="WeaveZone" from="WeaveStart" to="WeaveEnd" priority="10">
        <lane id="WeaveZone_0" index="0" speed="27.78" length="197.40" acceleration="1" shape="101.49,7.00 298.90,7.00"/>
        <lane id="WeaveZone_1" index="1" speed="27.78" length="197.40" shape="101.49,10.20 298.90,10.20"/>
        <lane id="WeaveZone_2" index="2" speed="27.78" length="197.40" shape="101.49,13.40 298.90,13.40"/>
    </edge>

    <junction id="End" type="dead_end" x="361.00" y="15.00" incLanes="MainLane_0 MainLane_1" intLanes="" shape="361.00,8.60 361.00,15.00"/>
    <junction id="ExitEnd" type="dead_end" x="350.00" y="6.80" incLanes="ExitRamp_0" intLanes="" shape="350.00,3.60 350.00,6.80"/>
    <junction id="MainStart" type="dead_end" x="0.00" y="15.00" incLanes="" intLanes="" shape="0.00,15.00 0.00,8.60"/>
    <junction id="OnRampStart" type="dead_end" x="0.00" y="0.00" incLanes="" intLanes="" shape="-0.00,-0.00 0.17,-3.20"/>
    <junction id="WeaveEnd" type="priority" x="300.00" y="15.00" incLanes="WeaveZone_0 WeaveZone_1 WeaveZone_2" intLanes=":WeaveEnd_0_0 :WeaveEnd_1_0 :WeaveEnd_1_1" shape="302.06,15.00 300.62,5.27 299.98,5.36 299.76,5.38 299.54,5.40 299.27,5.40 298.90,5.40 298.90,15.00">
        <request index="0" response="000" foes="000" cont="0"/>
        <request index="1" response="000" foes="000" cont="0"/>
        <request index="2" response="000" foes="000" cont="0"/>
    </junction>
    <junction id="WeaveStart" type="priority" x="100.00" y="15.00" incLanes="OnRamp_0 MainApproach_0 MainApproach_1" intLanes=":WeaveStart_0_0 :WeaveStart_1_0 :WeaveStart_1_1" shape="101.49,15.00 101.49,5.40 98.49,5.37 98.49,15.00">
        <request index="0" response="000" foes="000" cont="0"/>
        <request index="1" response="000" foes="000" cont="0"/>
        <request index="2" response="000" foes="000" cont="0"/>
    </junction>

    <connection from="MainApproach" to="WeaveZone" fromLane="0" toLane="1" via=":WeaveStart_1_0" dir="s" state="M"/>
    <connection from="MainApproach" to="WeaveZone" fromLane="1" toLane="2" via=":WeaveStart_1_1" dir="s" state="M"/>
    <connection from="OnRamp" to="WeaveZone" fromLane="0" toLane="0" via=":WeaveStart_0_0" dir="s" state="M"/>
    <connection from="WeaveZone" to="ExitRamp" fromLane="0" toLane="0" via=":WeaveEnd_0_0" dir="R" state="M"/>
    <connection from="WeaveZone" to="MainLane" fromLane="1" toLane="0" via=":WeaveEnd_1_0" dir="s" state="M"/>
    <connection from="WeaveZone" to="MainLane" fromLane="2" toLane="1" via=":WeaveEnd_1_1" dir="s" state="M"/>

    <connection from=":WeaveEnd_0" to="ExitRamp" fromLane="0" toLane="0" dir="R" state="M"/>
    <connection from=":WeaveEnd_1" to="MainLane" fromLane="0" toLane="0" dir="s" state="M"/>
    <connection from=":WeaveEnd_1" to="MainLane" fromLane="1" toLane="1" dir="s" state="M"/>
    <connection from=":WeaveStart_0" to="WeaveZone" fromLane="0" toLane="0" dir="s" state="M"/>
    <connection from=":WeaveStart_1" to="WeaveZone" fromLane="0" toLane="1" dir="s" state="M"/>
    <connection from=":WeaveStart_1" to="WeaveZone" fromLane="1" toLane="2" dir="s" state="M"/>

</net>
