<?xml version="1.0" encoding="UTF-8"?>

<!-- generated on 2026-06-15T19:59:51.965576+09:00 by Eclipse SUMO netconvert 1.27.0
<netconvertConfiguration xmlns:xsi="http://www.w3.org/2001/XMLSchema-instance" xsi:noNamespaceSchemaLocation="http://sumo.dlr.de/xsd/netconvertConfiguration.xsd">

    <input>
        <node-files value="weave.nod.xml"/>
        <edge-files value="weave.edg.xml"/>
    </input>

    <output>
        <output-file value="weave.net.xml"/>
    </output>

    <ramp_guessing>
        <ramps.guess value="true"/>
        <ramps.ramp-length value="200"/>
    </ramp_guessing>

</netconvertConfiguration>
-->

<net version="1.20" junctionCornerDetail="5" limitTurnSpeed="5.50" xmlns:xsi="http://www.w3.org/2001/XMLSchema-instance" xsi:noNamespaceSchemaLocation="http://sumo.dlr.de/xsd/net_file.xsd">

    <location netOffset="50.00,50.00" convBoundary="0.00,0.00,350.00,50.00" origBoundary="-50.00,-50.00,300.00,0.00" projParameter="!"/>

    <edge id=":WeaveEnd_0" function="internal">
        <lane id=":WeaveEnd_0_0" index="0" speed="11.76" length="3.64" shape="247.83,42.00 248.91,41.99 249.65,41.90 250.36,41.68 251.35,41.27"/>
    </edge>
    <edge id=":WeaveEnd_1" function="internal">
        <lane id=":WeaveEnd_1_0" index="0" speed="27.78" length="3.67" shape="247.83,45.20 251.50,45.20"/>
        <lane id=":WeaveEnd_1_1" index="1" speed="27.78" length="3.67" shape="247.83,48.40 251.50,48.40"/>
    </edge>
    <edge id=":WeaveStart_0" function="internal">
        <lane id=":WeaveStart_0_0" index="0" speed="27.78" length="3.18" shape="48.51,41.82 49.45,41.93 50.09,41.98 50.74,42.00 51.68,42.00"/>
    </edge>
    <edge id=":WeaveStart_1" function="internal">
        <lane id=":WeaveStart_1_0" index="0" speed="27.78" length="3.18" shape="48.50,45.20 51.68,45.20"/>
        <lane id=":WeaveStart_1_1" index="1" speed="27.78" length="3.18" shape="48.50,48.40 51.68,48.40"/>
    </edge>

    <edge id="ExitRamp" from="WeaveEnd" to="ExitEnd" priority="1" shape="250.00,43.60 350.00,0.00">
        <lane id="ExitRamp_0" index="0" speed="27.78" length="106.92" shape="251.35,41.27 349.36,-1.47"/>
    </edge>
    <edge id="MainApproach" from="MainStart" to="WeaveStart" priority="10">
        <lane id="MainApproach_0" index="0" speed="27.78" length="48.50" shape="0.00,45.20 48.50,45.20"/>
        <lane id="MainApproach_1" index="1" speed="27.78" length="48.50" shape="0.00,48.40 48.50,48.40"/>
    </edge>
    <edge id="MainLane" from="WeaveEnd" to="End" priority="10">
        <lane id="MainLane_0" index="0" speed="27.78" length="94.50" shape="251.50,45.20 346.00,45.20"/>
        <lane id="MainLane_1" index="1" speed="27.78" length="94.50" shape="251.50,48.40 346.00,48.40"/>
    </edge>
    <edge id="OnRamp" from="OnRampStart" to="WeaveStart" priority="1" shape="0.00,38.00 50.00,43.60">
        <lane id="OnRamp_0" index="0" speed="27.78" length="48.63" shape="0.18,36.41 48.51,41.82"/>
    </edge>
    <edge id="WeaveZone" from="WeaveStart" to="WeaveEnd" priority="10">
        <lane id="WeaveZone_0" index="0" speed="27.78" length="196.15" acceleration="1" shape="51.68,42.00 247.83,42.00"/>
        <lane id="WeaveZone_1" index="1" speed="27.78" length="196.15" shape="51.68,45.20 247.83,45.20"/>
        <lane id="WeaveZone_2" index="2" speed="27.78" length="196.15" shape="51.68,48.40 247.83,48.40"/>
    </edge>

    <junction id="End" type="dead_end" x="346.00" y="50.00" incLanes="MainLane_0 MainLane_1" intLanes="" shape="346.00,43.60 346.00,50.00"/>
    <junction id="ExitEnd" type="dead_end" x="350.00" y="0.00" incLanes="ExitRamp_0" intLanes="" shape="348.72,-2.93 350.00,-0.00"/>
    <junction id="MainStart" type="dead_end" x="0.00" y="50.00" incLanes="" intLanes="" shape="0.00,50.00 0.00,43.60"/>
    <junction id="OnRampStart" type="dead_end" x="0.00" y="38.00" incLanes="" intLanes="" shape="-0.00,38.00 0.36,34.82"/>
    <junction id="WeaveEnd" type="priority" x="250.00" y="50.00" incLanes="WeaveZone_0 WeaveZone_1 WeaveZone_2" intLanes=":WeaveEnd_0_0 :WeaveEnd_1_0 :WeaveEnd_1_1" shape="251.50,50.00 251.50,43.60 251.99,42.73 250.71,39.80 249.69,40.22 249.32,40.32 248.93,40.37 248.46,40.40 247.83,40.40 247.83,50.00">
        <request index="0" response="000" foes="000" cont="0"/>
        <request index="1" response="000" foes="000" cont="0"/>
        <request index="2" response="000" foes="000" cont="0"/>
    </junction>
    <junction id="WeaveStart" type="priority" x="50.00" y="50.00" incLanes="OnRamp_0 MainApproach_0 MainApproach_1" intLanes=":WeaveStart_0_0 :WeaveStart_1_0 :WeaveStart_1_1" shape="51.68,50.00 51.68,40.40 50.57,40.39 50.18,40.38 49.79,40.35 49.32,40.30 48.69,40.23 48.33,43.41 48.50,43.60 48.50,50.00">
        <request index="0" response="000" foes="000" cont="0"/>
        <request index="1" response="000" foes="000" cont="0"/>
        <request index="2" response="000" foes="000" cont="0"/>
    </junction>

    <connection from="MainApproach" to="WeaveZone" fromLane="0" toLane="1" via=":WeaveStart_1_0" dir="s" state="M"/>
    <connection from="MainApproach" to="WeaveZone" fromLane="1" toLane="2" via=":WeaveStart_1_1" dir="s" state="M"/>
    <connection from="OnRamp" to="WeaveZone" fromLane="0" toLane="0" via=":WeaveStart_0_0" dir="s" state="M"/>
    <connection from="WeaveZone" to="ExitRamp" fromLane="0" toLane="0" via=":WeaveEnd_0_0" dir="R" state="M"/>
    <connection from="WeaveZone" to="MainLane" fromLane="1" toLane="0" via=":WeaveEnd_1_0" dir="s" state="M"/>
    <connection from="WeaveZone" to="MainLane" fromLane="2" toLane="1" via=":WeaveEnd_1_1" dir="s" state="M"/>

    <connection from=":WeaveEnd_0" to="ExitRamp" fromLane="0" toLane="0" dir="R" state="M"/>
    <connection from=":WeaveEnd_1" to="MainLane" fromLane="0" toLane="0" dir="s" state="M"/>
    <connection from=":WeaveEnd_1" to="MainLane" fromLane="1" toLane="1" dir="s" state="M"/>
    <connection from=":WeaveStart_0" to="WeaveZone" fromLane="0" toLane="0" dir="s" state="M"/>
    <connection from=":WeaveStart_1" to="WeaveZone" fromLane="0" toLane="1" dir="s" state="M"/>
    <connection from=":WeaveStart_1" to="WeaveZone" fromLane="1" toLane="2" dir="s" state="M"/>

</net>
