<?xml version="1.0" encoding="UTF-8"?>

<!-- generated on 2026-06-15T19:53:53.061458+09:00 by Eclipse SUMO netconvert 1.27.0
<netconvertConfiguration xmlns:xsi="http://www.w3.org/2001/XMLSchema-instance" xsi:noNamespaceSchemaLocation="http://sumo.dlr.de/xsd/netconvertConfiguration.xsd">

    <input>
        <node-files value="weave.nod.xml"/>
        <edge-files value="weave.edg.xml"/>
    </input>

    <output>
        <output-file value="weave.net.xml"/>
    </output>

    <ramp_guessing>
        <ramps.guess value="true"/>
        <ramps.ramp-length value="200"/>
    </ramp_guessing>

</netconvertConfiguration>
-->

<net version="1.20" junctionCornerDetail="5" limitTurnSpeed="5.50" xmlns:xsi="http://www.w3.org/2001/XMLSchema-instance" xsi:noNamespaceSchemaLocation="http://sumo.dlr.de/xsd/net_file.xsd">

    <location netOffset="150.00,50.00" convBoundary="0.00,0.00,450.00,50.00" origBoundary="-150.00,-50.00,300.00,0.00" projParameter="!"/>

    <edge id=":WeaveEnd_0" function="internal">
        <lane id=":WeaveEnd_0_0" index="0" speed="11.76" length="3.64" shape="347.83,42.00 348.91,41.99 349.65,41.90 350.36,41.68 351.35,41.27"/>
    </edge>
    <edge id=":WeaveEnd_1" function="internal">
        <lane id=":WeaveEnd_1_0" index="0" speed="27.78" length="3.67" shape="347.83,45.20 351.50,45.20"/>
        <lane id=":WeaveEnd_1_1" index="1" speed="27.78" length="3.67" shape="347.83,48.40 351.50,48.40"/>
    </edge>
    <edge id=":WeaveStart_0" function="internal">
        <lane id=":WeaveStart_0_0" index="0" speed="27.78" length="3.15" shape="148.51,41.85 149.44,41.94 150.08,41.98 150.72,42.00 151.65,42.00"/>
    </edge>
    <edge id=":WeaveStart_1" function="internal">
        <lane id=":WeaveStart_1_0" index="0" speed="27.78" length="3.15" shape="148.50,45.20 151.65,45.20"/>
        <lane id=":WeaveStart_1_1" index="1" speed="27.78" length="3.15" shape="148.50,48.40 151.65,48.40"/>
    </edge>

    <edge id="ExitRamp" from="WeaveEnd" to="ExitEnd" priority="1" shape="350.00,43.60 450.00,0.00">
        <lane id="ExitRamp_0" index="0" speed="27.78" length="106.92" shape="351.35,41.27 449.36,-1.47"/>
    </edge>
    <edge id="MainApproach" from="MainStart" to="WeaveStart" priority="10">
        <lane id="MainApproach_0" index="0" speed="27.78" length="148.50" shape="0.00,45.20 148.50,45.20"/>
        <lane id="MainApproach_1" index="1" speed="27.78" length="148.50" shape="0.00,48.40 148.50,48.40"/>
    </edge>
    <edge id="MainLane" from="WeaveEnd" to="End" priority="10">
        <lane id="MainLane_0" index="0" speed="27.78" length="94.50" shape="351.50,45.20 446.00,45.20"/>
        <lane id="MainLane_1" index="1" speed="27.78" length="94.50" shape="351.50,48.40 446.00,48.40"/>
    </edge>
    <edge id="OnRamp" from="OnRampStart" to="WeaveStart" priority="1" shape="30.00,32.00 150.00,43.60">
        <lane id="OnRamp_0" index="0" speed="27.78" length="118.91" shape="30.15,30.41 148.51,41.85"/>
    </edge>
    <edge id="WeaveZone" from="WeaveStart" to="WeaveEnd" priority="10">
        <lane id="WeaveZone_0" index="0" speed="27.78" length="196.18" acceleration="1" shape="151.65,42.00 347.83,42.00"/>
        <lane id="WeaveZone_1" index="1" speed="27.78" length="196.18" shape="151.65,45.20 347.83,45.20"/>
        <lane id="WeaveZone_2" index="2" speed="27.78" length="196.18" shape="151.65,48.40 347.83,48.40"/>
    </edge>

    <junction id="End" type="dead_end" x="446.00" y="50.00" incLanes="MainLane_0 MainLane_1" intLanes="" shape="446.00,43.60 446.00,50.00"/>
    <junction id="ExitEnd" type="dead_end" x="450.00" y="0.00" incLanes="ExitRamp_0" intLanes="" shape="448.72,-2.93 450.00,-0.00"/>
    <junction id="MainStart" type="dead_end" x="0.00" y="50.00" incLanes="" intLanes="" shape="0.00,50.00 0.00,43.60"/>
    <junction id="OnRampStart" type="dead_end" x="30.00" y="32.00" incLanes="" intLanes="" shape="30.00,32.00 30.31,28.81"/>
    <junction id="WeaveEnd" type="priority" x="350.00" y="50.00" incLanes="WeaveZone_0 WeaveZone_1 WeaveZone_2" intLanes=":WeaveEnd_0_0 :WeaveEnd_1_0 :WeaveEnd_1_1" shape="351.50,50.00 351.50,43.60 351.99,42.73 350.71,39.80 349.69,40.22 349.32,40.32 348.93,40.37 348.46,40.40 347.83,40.40 347.83,50.00">
        <request index="0" response="000" foes="000" cont="0"/>
        <request index="1" response="000" foes="000" cont="0"/>
        <request index="2" response="000" foes="000" cont="0"/>
    </junction>
    <junction id="WeaveStart" type="priority" x="150.00" y="50.00" incLanes="OnRamp_0 MainApproach_0 MainApproach_1" intLanes=":WeaveStart_0_0 :WeaveStart_1_0 :WeaveStart_1_1" shape="151.65,50.00 151.65,40.40 150.54,40.39 150.16,40.38 149.77,40.36 149.30,40.32 148.66,40.26 148.35,43.44 148.50,43.60 148.50,50.00">
        <request index="0" response="000" foes="000" cont="0"/>
        <request index="1" response="000" foes="000" cont="0"/>
        <request index="2" response="000" foes="000" cont="0"/>
    </junction>

    <connection from="MainApproach" to="WeaveZone" fromLane="0" toLane="1" via=":WeaveStart_1_0" dir="s" state="M"/>
    <connection from="MainApproach" to="WeaveZone" fromLane="1" toLane="2" via=":WeaveStart_1_1" dir="s" state="M"/>
    <connection from="OnRamp" to="WeaveZone" fromLane="0" toLane="0" via=":WeaveStart_0_0" dir="s" state="M"/>
    <connection from="WeaveZone" to="ExitRamp" fromLane="0" toLane="0" via=":WeaveEnd_0_0" dir="R" state="M"/>
    <connection from="WeaveZone" to="MainLane" fromLane="1" toLane="0" via=":WeaveEnd_1_0" dir="s" state="M"/>
    <connection from="WeaveZone" to="MainLane" fromLane="2" toLane="1" via=":WeaveEnd_1_1" dir="s" state="M"/>

    <connection from=":WeaveEnd_0" to="ExitRamp" fromLane="0" toLane="0" dir="R" state="M"/>
    <connection from=":WeaveEnd_1" to="MainLane" fromLane="0" toLane="0" dir="s" state="M"/>
    <connection from=":WeaveEnd_1" to="MainLane" fromLane="1" toLane="1" dir="s" state="M"/>
    <connection from=":WeaveStart_0" to="WeaveZone" fromLane="0" toLane="0" dir="s" state="M"/>
    <connection from=":WeaveStart_1" to="WeaveZone" fromLane="0" toLane="1" dir="s" state="M"/>
    <connection from=":WeaveStart_1" to="WeaveZone" fromLane="1" toLane="2" dir="s" state="M"/>

</net>
