<?xml version="1.0" encoding="UTF-8"?>

<!-- generated on 2026-06-15T20:37:00.713471+09:00 by Eclipse SUMO netconvert 1.27.0
<netconvertConfiguration xmlns:xsi="http://www.w3.org/2001/XMLSchema-instance" xsi:noNamespaceSchemaLocation="http://sumo.dlr.de/xsd/netconvertConfiguration.xsd">

    <input>
        <node-files value="weave.nod.xml"/>
        <edge-files value="weave.edg.xml"/>
    </input>

    <output>
        <output-file value="weave.net.xml"/>
    </output>

    <ramp_guessing>
        <ramps.guess value="true"/>
        <ramps.ramp-length value="200"/>
    </ramp_guessing>

</netconvertConfiguration>
-->

<net version="1.20" junctionCornerDetail="5" limitTurnSpeed="5.50" xmlns:xsi="http://www.w3.org/2001/XMLSchema-instance" xsi:noNamespaceSchemaLocation="http://sumo.dlr.de/xsd/net_file.xsd">

    <location netOffset="100.00,50.00" convBoundary="0.00,0.00,400.00,50.00" origBoundary="-100.00,-50.00,300.00,0.00" projParameter="!"/>

    <edge id=":WeaveEnd_0" function="internal">
        <lane id=":WeaveEnd_0_0" index="0" speed="11.76" length="3.64" shape="297.83,42.00 298.91,41.99 299.65,41.90 300.36,41.68 301.35,41.27"/>
    </edge>
    <edge id=":WeaveEnd_1" function="internal">
        <lane id=":WeaveEnd_1_0" index="0" speed="27.78" length="3.67" shape="297.83,45.20 301.50,45.20"/>
        <lane id=":WeaveEnd_1_1" index="1" speed="27.78" length="3.67" shape="297.83,48.40 301.50,48.40"/>
    </edge>
    <edge id=":WeaveStart_0" function="internal">
        <lane id=":WeaveStart_0_0" index="0" speed="27.78" length="3.13" shape="98.51,41.87 101.64,42.00"/>
    </edge>
    <edge id=":WeaveStart_1" function="internal">
        <lane id=":WeaveStart_1_0" index="0" speed="27.78" length="3.14" shape="98.50,45.20 101.64,45.20"/>
        <lane id=":WeaveStart_1_1" index="1" speed="27.78" length="3.14" shape="98.50,48.40 101.64,48.40"/>
    </edge>

    <edge id="ExitRamp" from="WeaveEnd" to="ExitEnd" priority="1" shape="300.00,43.60 400.00,0.00">
        <lane id="ExitRamp_0" index="0" speed="27.78" length="106.92" shape="301.35,41.27 399.36,-1.47"/>
    </edge>
    <edge id="MainApproach" from="MainStart" to="WeaveStart" priority="10">
        <lane id="MainApproach_0" index="0" speed="27.78" length="48.50" shape="50.00,45.20 98.50,45.20"/>
        <lane id="MainApproach_1" index="1" speed="27.78" length="48.50" shape="50.00,48.40 98.50,48.40"/>
    </edge>
    <edge id="MainLane" from="WeaveEnd" to="End" priority="10">
        <lane id="MainLane_0" index="0" speed="27.78" length="94.50" shape="301.50,45.20 396.00,45.20"/>
        <lane id="MainLane_1" index="1" speed="27.78" length="94.50" shape="301.50,48.40 396.00,48.40"/>
    </edge>
    <edge id="OnRamp" from="OnRampStart" to="WeaveStart" priority="1" shape="0.00,35.00 100.00,43.60">
        <lane id="OnRamp_0" index="0" speed="27.78" length="98.73" shape="0.14,33.41 98.51,41.87"/>
    </edge>
    <edge id="WeaveZone" from="WeaveStart" to="WeaveEnd" priority="10">
        <lane id="WeaveZone_0" index="0" speed="27.78" length="196.20" acceleration="1" shape="101.64,42.00 297.83,42.00"/>
        <lane id="WeaveZone_1" index="1" speed="27.78" length="196.20" shape="101.64,45.20 297.83,45.20"/>
        <lane id="WeaveZone_2" index="2" speed="27.78" length="196.20" shape="101.64,48.40 297.83,48.40"/>
    </edge>

    <junction id="End" type="dead_end" x="396.00" y="50.00" incLanes="MainLane_0 MainLane_1" intLanes="" shape="396.00,43.60 396.00,50.00"/>
    <junction id="ExitEnd" type="dead_end" x="400.00" y="0.00" incLanes="ExitRamp_0" intLanes="" shape="398.72,-2.93 400.00,-0.00"/>
    <junction id="MainStart" type="dead_end" x="50.00" y="50.00" incLanes="" intLanes="" shape="50.00,50.00 50.00,43.60"/>
    <junction id="OnRampStart" type="dead_end" x="0.00" y="35.00" incLanes="" intLanes="" shape="0.00,35.00 0.27,31.81"/>
    <junction id="WeaveEnd" type="priority" x="300.00" y="50.00" incLanes="WeaveZone_0 WeaveZone_1 WeaveZone_2" intLanes=":WeaveEnd_0_0 :WeaveEnd_1_0 :WeaveEnd_1_1" shape="301.50,50.00 301.50,43.60 301.99,42.73 300.71,39.80 299.69,40.22 299.32,40.32 298.93,40.37 298.46,40.40 297.83,40.40 297.83,50.00">
        <request index="0" response="000" foes="000" cont="0"/>
        <request index="1" response="000" foes="000" cont="0"/>
        <request index="2" response="000" foes="000" cont="0"/>
    </junction>
    <junction id="WeaveStart" type="priority" x="100.00" y="50.00" incLanes="OnRamp_0 MainApproach_0 MainApproach_1" intLanes=":WeaveStart_0_0 :WeaveStart_1_0 :WeaveStart_1_1" shape="101.64,50.00 101.64,40.40 98.64,40.27 98.37,43.46 98.50,43.60 98.50,50.00">
        <request index="0" response="000" foes="000" cont="0"/>
        <request index="1" response="000" foes="000" cont="0"/>
        <request index="2" response="000" foes="000" cont="0"/>
    </junction>

    <connection from="MainApproach" to="WeaveZone" fromLane="0" toLane="1" via=":WeaveStart_1_0" dir="s" state="M"/>
    <connection from="MainApproach" to="WeaveZone" fromLane="1" toLane="2" via=":WeaveStart_1_1" dir="s" state="M"/>
    <connection from="OnRamp" to="WeaveZone" fromLane="0" toLane="0" via=":WeaveStart_0_0" dir="s" state="M"/>
    <connection from="WeaveZone" to="ExitRamp" fromLane="0" toLane="0" via=":WeaveEnd_0_0" dir="R" state="M"/>
    <connection from="WeaveZone" to="MainLane" fromLane="1" toLane="0" via=":WeaveEnd_1_0" dir="s" state="M"/>
    <connection from="WeaveZone" to="MainLane" fromLane="2" toLane="1" via=":WeaveEnd_1_1" dir="s" state="M"/>

    <connection from=":WeaveEnd_0" to="ExitRamp" fromLane="0" toLane="0" dir="R" state="M"/>
    <connection from=":WeaveEnd_1" to="MainLane" fromLane="0" toLane="0" dir="s" state="M"/>
    <connection from=":WeaveEnd_1" to="MainLane" fromLane="1" toLane="1" dir="s" state="M"/>
    <connection from=":WeaveStart_0" to="WeaveZone" fromLane="0" toLane="0" dir="s" state="M"/>
    <connection from=":WeaveStart_1" to="WeaveZone" fromLane="0" toLane="1" dir="s" state="M"/>
    <connection from=":WeaveStart_1" to="WeaveZone" fromLane="1" toLane="2" dir="s" state="M"/>

</net>
