<edges>
    <edge id="WeaveZone" from="Start" to="WeaveEnd" numLanes="3" speed="27.78"/>
    <edge id="MainEnd" from="WeaveEnd" to="End" numLanes="2" speed="27.78"/>
    <edge id="ExitLane" from="WeaveEnd" to="Exit" numLanes="1" speed="5.56"/>
</edges>
